/*---------------------------------------------------------------------------*\
  =========                 |
  \\      /  F ield         | OpenFOAM: The Open Source CFD Toolbox
   \\    /   O peration     | Website:  https://openfoam.org
    \\  /    A nd           | Version:  13
     \\/     M anipulation  |
\*---------------------------------------------------------------------------*/
Build  : 13-441953dfbb42
Exec   : foamMultiRun
Date   : Apr 28 2026
Time   : 20:53:14
Host   : "openfoam"
PID    : 3264452
I/O    : uncollated
Case   : /home/ubuntu/jaydeep/OpenFOAM-13-master/multiSpeciesRegionFoam/tutorials/case314-composite-membrane
nProcs : 1
sigFpe : Floating point exception trapping - not supported on this platform
fileModificationChecking : Monitoring run-time modified files using timeStampMaster (fileModificationSkew 10)
allowSystemOperations : Allowing user-supplied system call operations

// * * * * * * * * * * * * * * * * * * * * * * * * * * * * * * * * * * * * * //
Create time

Selecting solver speciesSolid
Selecting thermodynamics package 
{
    type            heSolidThermo;
    mixture         pureMixture;
    transport       constIsoSolid;
    thermo          eConst;
    equationOfState rhoConst;
    specie          specie;
    energy          sensibleInternalEnergy;
}

Selecting default solid thermophysical transport model isotropic
Selecting trapping model: noTrapping
Species C_T2 initialised in region pyc
    D0 = 1e-09, Ea_D = 0 J/mol
    Ks0 = 2000
Creating fvModels from "constant/fvModels"

Selecting solver speciesSolid
Selecting thermodynamics package 
{
    type            heSolidThermo;
    mixture         pureMixture;
    transport       constIsoSolid;
    thermo          eConst;
    equationOfState rhoConst;
    specie          specie;
    energy          sensibleInternalEnergy;
}

Selecting default solid thermophysical transport model isotropic
Selecting trapping model: noTrapping
Species C_T2 initialised in region sic
    D0 = 1e-09, Ea_D = 0 J/mol
    Ks0 = 1000
Creating fvModels from "constant/fvModels"


PIMPLE: Region pyc
PIMPLE: Convergence criteria found
        e: tolerance 1e-08
        "C_.*": tolerance 1e-08


PIMPLE: Region sic
PIMPLE: Convergence criteria found
        e: tolerance 1e-08
        "C_.*": tolerance 1e-08


PIMPLE: Operating solver in transient mode with 1 outer corrector
PIMPLE: Operating solver in PISO mode



Starting time loop

    Time = 1s
    
pyc DICPCG:  Solving for e, Initial residual = 0.87686857, Final residual = 9.5659204e-14, No Iterations 1
pyc DICPCG:  Solving for C_T2, Initial residual = 1, Final residual = 5.9183111e-16, No Iterations 1
sic DICPCG:  Solving for e, Initial residual = 0.81202271, Final residual = 9.7257796e-14, No Iterations 1
sic DICPCG:  Solving for C_T2, Initial residual = 0.99867267, Final residual = 5.7583708e-16, No Iterations 1
    ExecutionTime = 0.04085 s  ClockTime = 0 s
    
    Time = 2s
    
pyc DICPCG:  Solving for e, Initial residual = 0.32738554, Final residual = 8.6712752e-16, No Iterations 1
pyc DICPCG:  Solving for C_T2, Initial residual = 0.037293859, Final residual = 1.1242124e-16, No Iterations 1
sic DICPCG:  Solving for e, Initial residual = 0.030879898, Final residual = 3.7458008e-16, No Iterations 1
sic DICPCG:  Solving for C_T2, Initial residual = 0.78741165, Final residual = 4.9103288e-16, No Iterations 1
    ExecutionTime = 0.041239 s  ClockTime = 0 s
    
    Time = 3s
    
pyc DICPCG:  Solving for e, Initial residual = 0.20326442, Final residual = 7.5051312e-16, No Iterations 1
pyc DICPCG:  Solving for C_T2, Initial residual = 0.018107235, Final residual = 8.9260741e-17, No Iterations 1
sic DICPCG:  Solving for e, Initial residual = 0.033797224, Final residual = 1.6146723e-16, No Iterations 1
sic DICPCG:  Solving for C_T2, Initial residual = 0.63867247, Final residual = 3.7649337e-16, No Iterations 1
    ExecutionTime = 0.041571 s  ClockTime = 0 s
    
    Time = 4s
    
pyc DICPCG:  Solving for e, Initial residual = 0.13646055, Final residual = 5.928001e-16, No Iterations 1
pyc DICPCG:  Solving for C_T2, Initial residual = 0.013313848, Final residual = 6.555156e-17, No Iterations 1
sic DICPCG:  Solving for e, Initial residual = 0.035508196, Final residual = 4.9005497e-16, No Iterations 1
sic DICPCG:  Solving for C_T2, Initial residual = 0.52849264, Final residual = 3.8927031e-16, No Iterations 1
    ExecutionTime = 0.041925 s  ClockTime = 0 s
    
    Time = 5s
    
pyc DICPCG:  Solving for e, Initial residual = 0.12069823, Final residual = 3.3390704e-16, No Iterations 1
pyc DICPCG:  Solving for C_T2, Initial residual = 0.01097706, Final residual = 4.5142221e-17, No Iterations 1
sic DICPCG:  Solving for e, Initial residual = 0.034261588, Final residual = 3.8387144e-16, No Iterations 1
sic DICPCG:  Solving for C_T2, Initial residual = 0.44418807, Final residual = 5.6695399e-16, No Iterations 1
    ExecutionTime = 0.042241 s  ClockTime = 0 s
    
    Time = 6s
    
pyc DICPCG:  Solving for e, Initial residual = 0.097044253, Final residual = 4.8230404e-16, No Iterations 1
pyc DICPCG:  Solving for C_T2, Initial residual = 0.0095435255, Final residual = 6.2004118e-17, No Iterations 1
sic DICPCG:  Solving for e, Initial residual = 0.031806564, Final residual = 3.3943746e-16, No Iterations 1
sic DICPCG:  Solving for C_T2, Initial residual = 0.37816971, Final residual = 3.645731e-16, No Iterations 1
    ExecutionTime = 0.042575 s  ClockTime = 0 s
    
    Time = 7s
    
pyc DICPCG:  Solving for e, Initial residual = 0.081336476, Final residual = 3.6295956e-16, No Iterations 1
pyc DICPCG:  Solving for C_T2, Initial residual = 0.0085566769, Final residual = 4.5321872e-17, No Iterations 1
sic DICPCG:  Solving for e, Initial residual = 0.025823451, Final residual = 4.1520727e-16, No Iterations 1
sic DICPCG:  Solving for C_T2, Initial residual = 0.32549062, Final residual = 3.5065832e-16, No Iterations 1
    ExecutionTime = 0.042873 s  ClockTime = 0 s
    
    Time = 8s
    
pyc DICPCG:  Solving for e, Initial residual = 0.070897817, Final residual = 1.915046e-16, No Iterations 1
pyc DICPCG:  Solving for C_T2, Initial residual = 0.00782763, Final residual = 4.2040242e-17, No Iterations 1
sic DICPCG:  Solving for e, Initial residual = 0.023992588, Final residual = 1.6673489e-16, No Iterations 1
sic DICPCG:  Solving for C_T2, Initial residual = 0.28280696, Final residual = 3.1445595e-16, No Iterations 1
    ExecutionTime = 0.043187 s  ClockTime = 0 s
    
    Time = 9s
    
pyc DICPCG:  Solving for e, Initial residual = 0.045900286, Final residual = 1.105808e-16, No Iterations 1
pyc DICPCG:  Solving for C_T2, Initial residual = 0.0072627259, Final residual = 3.7878965e-17, No Iterations 1
sic DICPCG:  Solving for e, Initial residual = 0.024753913, Final residual = 9.6083184e-17, No Iterations 1
sic DICPCG:  Solving for C_T2, Initial residual = 0.24777843, Final residual = 2.6896988e-16, No Iterations 1
    ExecutionTime = 0.043496 s  ClockTime = 0 s
    
    Time = 10s
    
pyc DICPCG:  Solving for e, Initial residual = 0.037343578, Final residual = 8.0740671e-17, No Iterations 1
pyc DICPCG:  Solving for C_T2, Initial residual = 0.0068096371, Final residual = 3.459092e-17, No Iterations 1
sic DICPCG:  Solving for e, Initial residual = 0.025107891, Final residual = 2.9739857e-16, No Iterations 1
sic DICPCG:  Solving for C_T2, Initial residual = 0.21870039, Final residual = 2.4318009e-16, No Iterations 1
    ExecutionTime = 0.043823 s  ClockTime = 0 s
    
    Time = 11s
    
pyc DICPCG:  Solving for e, Initial residual = 0.044482669, Final residual = 4.9257623e-16, No Iterations 1
pyc DICPCG:  Solving for C_T2, Initial residual = 0.0064364914, Final residual = 3.5623514e-17, No Iterations 1
sic DICPCG:  Solving for e, Initial residual = 0.024070731, Final residual = 5.9403103e-17, No Iterations 1
sic DICPCG:  Solving for C_T2, Initial residual = 0.19433727, Final residual = 1.8792669e-16, No Iterations 1
    ExecutionTime = 0.044096 s  ClockTime = 0 s
    
    Time = 12s
    
pyc DICPCG:  Solving for e, Initial residual = 0.030218537, Final residual = 1.2181977e-16, No Iterations 1
pyc DICPCG:  Solving for C_T2, Initial residual = 0.0061226269, Final residual = 3.4511079e-17, No Iterations 1
sic DICPCG:  Solving for e, Initial residual = 0.020637609, Final residual = 2.8951422e-16, No Iterations 1
sic DICPCG:  Solving for C_T2, Initial residual = 0.17374281, Final residual = 2.4203221e-16, No Iterations 1
    ExecutionTime = 0.044416 s  ClockTime = 0 s
    
    Time = 13s
    
pyc DICPCG:  Solving for e, Initial residual = 0.032928143, Final residual = 1.9544819e-16, No Iterations 1
pyc DICPCG:  Solving for C_T2, Initial residual = 0.005854058, Final residual = 3.5604562e-17, No Iterations 1
sic DICPCG:  Solving for e, Initial residual = 0.021158575, Final residual = 1.0072759e-16, No Iterations 1
sic DICPCG:  Solving for C_T2, Initial residual = 0.15620433, Final residual = 1.5294656e-16, No Iterations 1
    ExecutionTime = 0.044708 s  ClockTime = 0 s
    
    Time = 14s
    
pyc DICPCG:  Solving for e, Initial residual = 0.028021312, Final residual = 1.039215e-16, No Iterations 1
pyc DICPCG:  Solving for C_T2, Initial residual = 0.0056207667, Final residual = 2.9716389e-17, No Iterations 1
sic DICPCG:  Solving for e, Initial residual = 0.021124781, Final residual = 3.5868609e-16, No Iterations 1
sic DICPCG:  Solving for C_T2, Initial residual = 0.14116169, Final residual = 1.5294284e-16, No Iterations 1
    ExecutionTime = 0.045 s  ClockTime = 0 s
    
    Time = 15s
    
pyc DICPCG:  Solving for e, Initial residual = 0.023375432, Final residual = 2.8910884e-16, No Iterations 1
pyc DICPCG:  Solving for C_T2, Initial residual = 0.005415794, Final residual = 2.6542e-17, No Iterations 1
sic DICPCG:  Solving for e, Initial residual = 0.020415124, Final residual = 3.7445302e-16, No Iterations 1
sic DICPCG:  Solving for C_T2, Initial residual = 0.12817877, Final residual = 1.9956418e-16, No Iterations 1
    ExecutionTime = 0.045297 s  ClockTime = 0 s
    
    Time = 16s
    
pyc DICPCG:  Solving for e, Initial residual = 0.022056961, Final residual = 1.0805186e-16, No Iterations 1
pyc DICPCG:  Solving for C_T2, Initial residual = 0.005233641, Final residual = 2.7253044e-17, No Iterations 1
sic DICPCG:  Solving for e, Initial residual = 0.017420177, Final residual = 2.1424802e-16, No Iterations 1
sic DICPCG:  Solving for C_T2, Initial residual = 0.11690389, Final residual = 1.5263651e-16, No Iterations 1
    ExecutionTime = 0.045572 s  ClockTime = 0 s
    
    Time = 17s
    
pyc DICPCG:  Solving for e, Initial residual = 0.016154339, Final residual = 8.6004266e-17, No Iterations 1
pyc DICPCG:  Solving for C_T2, Initial residual = 0.0050703091, Final residual = 2.7495941e-17, No Iterations 1
sic DICPCG:  Solving for e, Initial residual = 0.023097639, Final residual = 3.6165981e-16, No Iterations 1
sic DICPCG:  Solving for C_T2, Initial residual = 0.1070602, Final residual = 1.4015013e-16, No Iterations 1
    ExecutionTime = 0.045883 s  ClockTime = 0 s
    
    Time = 18s
    
pyc DICPCG:  Solving for e, Initial residual = 0.032370725, Final residual = 9.7461515e-17, No Iterations 1
pyc DICPCG:  Solving for C_T2, Initial residual = 0.0049227587, Final residual = 2.4962983e-17, No Iterations 1
sic DICPCG:  Solving for e, Initial residual = 0.018417923, Final residual = 1.2528705e-16, No Iterations 1
sic DICPCG:  Solving for C_T2, Initial residual = 0.098423083, Final residual = 1.9106084e-16, No Iterations 1
    ExecutionTime = 0.046194 s  ClockTime = 0 s
    
    Time = 19s
    
pyc DICPCG:  Solving for e, Initial residual = 0.027883581, Final residual = 7.8157448e-17, No Iterations 1
pyc DICPCG:  Solving for C_T2, Initial residual = 0.0047882913, Final residual = 2.4554491e-17, No Iterations 1
sic DICPCG:  Solving for e, Initial residual = 0.019603138, Final residual = 2.0508802e-16, No Iterations 1
sic DICPCG:  Solving for C_T2, Initial residual = 0.090806596, Final residual = 1.1497468e-16, No Iterations 1
    ExecutionTime = 0.046503 s  ClockTime = 0 s
    
    Time = 20s
    
pyc DICPCG:  Solving for e, Initial residual = 0.027487459, Final residual = 4.0956633e-16, No Iterations 1
pyc DICPCG:  Solving for C_T2, Initial residual = 0.0046652052, Final residual = 2.6368317e-17, No Iterations 1
sic DICPCG:  Solving for e, Initial residual = 0.0161035, Final residual = 1.6370994e-16, No Iterations 1
sic DICPCG:  Solving for C_T2, Initial residual = 0.084059556, Final residual = 9.1424003e-17, No Iterations 1
    ExecutionTime = 0.046831 s  ClockTime = 0 s
    
    Time = 21s
    
pyc DICPCG:  Solving for e, Initial residual = 0.034330877, Final residual = 1.0808567e-16, No Iterations 1
pyc DICPCG:  Solving for C_T2, Initial residual = 0.0045517321, Final residual = 3.0143461e-17, No Iterations 1
sic DICPCG:  Solving for e, Initial residual = 0.016847081, Final residual = 3.8398533e-16, No Iterations 1
sic DICPCG:  Solving for C_T2, Initial residual = 0.078060543, Final residual = 1.3930074e-16, No Iterations 1
    ExecutionTime = 0.047101 s  ClockTime = 0 s
    
    Time = 22s
    
pyc DICPCG:  Solving for e, Initial residual = 0.010772248, Final residual = 1.5879833e-16, No Iterations 1
pyc DICPCG:  Solving for C_T2, Initial residual = 0.0044466398, Final residual = 2.2701589e-17, No Iterations 1
sic DICPCG:  Solving for e, Initial residual = 0.014575146, Final residual = 7.9282932e-17, No Iterations 1
sic DICPCG:  Solving for C_T2, Initial residual = 0.072699433, Final residual = 1.2118185e-16, No Iterations 1
    ExecutionTime = 0.047406 s  ClockTime = 0 s
    
    Time = 23s
    
pyc DICPCG:  Solving for e, Initial residual = 0.012013053, Final residual = 1.6091918e-16, No Iterations 1
pyc DICPCG:  Solving for C_T2, Initial residual = 0.0043490392, Final residual = 2.0573402e-17, No Iterations 1
sic DICPCG:  Solving for e, Initial residual = 0.016063582, Final residual = 1.7875988e-16, No Iterations 1
sic DICPCG:  Solving for C_T2, Initial residual = 0.067897019, Final residual = 9.5083959e-17, No Iterations 1
    ExecutionTime = 0.047675 s  ClockTime = 0 s
    
    Time = 24s
    
pyc DICPCG:  Solving for e, Initial residual = 0.027441351, Final residual = 2.7784727e-16, No Iterations 1
pyc DICPCG:  Solving for C_T2, Initial residual = 0.0042576554, Final residual = 2.4935969e-17, No Iterations 1
sic DICPCG:  Solving for e, Initial residual = 0.016401482, Final residual = 2.5075769e-16, No Iterations 1
sic DICPCG:  Solving for C_T2, Initial residual = 0.06357284, Final residual = 1.0769598e-16, No Iterations 1
    ExecutionTime = 0.047972 s  ClockTime = 0 s
    
    Time = 25s
    
pyc DICPCG:  Solving for e, Initial residual = 0.025001705, Final residual = 3.2681132e-17, No Iterations 1
pyc DICPCG:  Solving for C_T2, Initial residual = 0.0041721364, Final residual = 2.1333132e-17, No Iterations 1
sic DICPCG:  Solving for e, Initial residual = 0.015498017, Final residual = 2.4665907e-16, No Iterations 1
sic DICPCG:  Solving for C_T2, Initial residual = 0.059671743, Final residual = 8.1408876e-17, No Iterations 1
    ExecutionTime = 0.048271 s  ClockTime = 0 s
    
    Time = 26s
    
pyc DICPCG:  Solving for e, Initial residual = 0.019379488, Final residual = 1.0978657e-16, No Iterations 1
pyc DICPCG:  Solving for C_T2, Initial residual = 0.0040917989, Final residual = 2.0465499e-17, No Iterations 1
sic DICPCG:  Solving for e, Initial residual = 0.01691191, Final residual = 1.9438918e-16, No Iterations 1
sic DICPCG:  Solving for C_T2, Initial residual = 0.056137034, Final residual = 8.6376941e-17, No Iterations 1
    ExecutionTime = 0.048583 s  ClockTime = 0 s
    
    Time = 27s
    
pyc DICPCG:  Solving for e, Initial residual = 0.015309225, Final residual = 3.2848839e-16, No Iterations 1
pyc DICPCG:  Solving for C_T2, Initial residual = 0.0040159055, Final residual = 2.0833682e-17, No Iterations 1
sic DICPCG:  Solving for e, Initial residual = 0.016458586, Final residual = 4.3486159e-16, No Iterations 1
sic DICPCG:  Solving for C_T2, Initial residual = 0.052926358, Final residual = 9.1665938e-17, No Iterations 1
    ExecutionTime = 0.048868 s  ClockTime = 0 s
    
    Time = 28s
    
pyc DICPCG:  Solving for e, Initial residual = 0.031502305, Final residual = 3.6670589e-17, No Iterations 1
pyc DICPCG:  Solving for C_T2, Initial residual = 0.0039442171, Final residual = 1.8409341e-17, No Iterations 1
sic DICPCG:  Solving for e, Initial residual = 0.015384462, Final residual = 2.3168667e-16, No Iterations 1
sic DICPCG:  Solving for C_T2, Initial residual = 0.050000648, Final residual = 8.4968633e-17, No Iterations 1
    ExecutionTime = 0.049166 s  ClockTime = 0 s
    
    Time = 29s
    
pyc DICPCG:  Solving for e, Initial residual = 0.01566562, Final residual = 2.6201393e-16, No Iterations 1
pyc DICPCG:  Solving for C_T2, Initial residual = 0.0038763709, Final residual = 1.7817037e-17, No Iterations 1
sic DICPCG:  Solving for e, Initial residual = 0.016867925, Final residual = 3.7453685e-17, No Iterations 1
sic DICPCG:  Solving for C_T2, Initial residual = 0.047327784, Final residual = 9.2992075e-17, No Iterations 1
    ExecutionTime = 0.049425 s  ClockTime = 0 s
    
    Time = 30s
    
pyc DICPCG:  Solving for e, Initial residual = 0.011876109, Final residual = 4.6178723e-17, No Iterations 1
pyc DICPCG:  Solving for C_T2, Initial residual = 0.0038119107, Final residual = 1.7286895e-17, No Iterations 1
sic DICPCG:  Solving for e, Initial residual = 0.017567568, Final residual = 3.0805283e-16, No Iterations 1
sic DICPCG:  Solving for C_T2, Initial residual = 0.044878559, Final residual = 7.7723837e-17, No Iterations 1
    ExecutionTime = 0.0497 s  ClockTime = 0 s
    
    Time = 31s
    
pyc DICPCG:  Solving for e, Initial residual = 0.018021418, Final residual = 1.9916882e-17, No Iterations 1
pyc DICPCG:  Solving for C_T2, Initial residual = 0.003750543, Final residual = 1.652514e-17, No Iterations 1
sic DICPCG:  Solving for e, Initial residual = 0.015226064, Final residual = 1.7528449e-16, No Iterations 1
sic DICPCG:  Solving for C_T2, Initial residual = 0.042629486, Final residual = 8.4667498e-17, No Iterations 1
    ExecutionTime = 0.049997 s  ClockTime = 0 s
    
    Time = 32s
    
pyc DICPCG:  Solving for e, Initial residual = 0.011945742, Final residual = 8.7614405e-17, No Iterations 1
pyc DICPCG:  Solving for C_T2, Initial residual = 0.0036921055, Final residual = 1.6878485e-17, No Iterations 1
sic DICPCG:  Solving for e, Initial residual = 0.014585252, Final residual = 4.1809544e-16, No Iterations 1
sic DICPCG:  Solving for C_T2, Initial residual = 0.040559023, Final residual = 8.6839281e-17, No Iterations 1
    ExecutionTime = 0.050318 s  ClockTime = 0 s
    
    Time = 33s
    
pyc DICPCG:  Solving for e, Initial residual = 0.012686728, Final residual = 4.1628672e-16, No Iterations 1
pyc DICPCG:  Solving for C_T2, Initial residual = 0.0036363883, Final residual = 1.8654082e-17, No Iterations 1
sic DICPCG:  Solving for e, Initial residual = 0.016682057, Final residual = 1.4791436e-16, No Iterations 1
sic DICPCG:  Solving for C_T2, Initial residual = 0.038646957, Final residual = 9.3368556e-17, No Iterations 1
    ExecutionTime = 0.05062 s  ClockTime = 0 s
    
    Time = 34s
    
pyc DICPCG:  Solving for e, Initial residual = 0.018141693, Final residual = 2.0084276e-16, No Iterations 1
pyc DICPCG:  Solving for C_T2, Initial residual = 0.003583127, Final residual = 1.7169533e-17, No Iterations 1
sic DICPCG:  Solving for e, Initial residual = 0.017950182, Final residual = 2.3926599e-16, No Iterations 1
sic DICPCG:  Solving for C_T2, Initial residual = 0.036879632, Final residual = 6.7153275e-17, No Iterations 1
    ExecutionTime = 0.05093 s  ClockTime = 0 s
    
    Time = 35s
    
pyc DICPCG:  Solving for e, Initial residual = 0.015173816, Final residual = 2.0941681e-16, No Iterations 1
pyc DICPCG:  Solving for C_T2, Initial residual = 0.0035321655, Final residual = 1.6084191e-17, No Iterations 1
sic DICPCG:  Solving for e, Initial residual = 0.01594642, Final residual = 9.2176012e-17, No Iterations 1
sic DICPCG:  Solving for C_T2, Initial residual = 0.035241413, Final residual = 7.698195e-17, No Iterations 1
    ExecutionTime = 0.051221 s  ClockTime = 0 s
    
    Time = 36s
    
pyc DICPCG:  Solving for e, Initial residual = 0.016210797, Final residual = 1.0631695e-16, No Iterations 1
pyc DICPCG:  Solving for C_T2, Initial residual = 0.0034833197, Final residual = 1.648463e-17, No Iterations 1
sic DICPCG:  Solving for e, Initial residual = 0.015691099, Final residual = 7.3910287e-17, No Iterations 1
sic DICPCG:  Solving for C_T2, Initial residual = 0.033718939, Final residual = 7.5610963e-17, No Iterations 1
    ExecutionTime = 0.051528 s  ClockTime = 0 s
    
    Time = 37s
    
pyc DICPCG:  Solving for e, Initial residual = 0.013392494, Final residual = 4.2313627e-17, No Iterations 1
pyc DICPCG:  Solving for C_T2, Initial residual = 0.0034364968, Final residual = 1.6180472e-17, No Iterations 1
sic DICPCG:  Solving for e, Initial residual = 0.016852948, Final residual = 9.3961979e-17, No Iterations 1
sic DICPCG:  Solving for C_T2, Initial residual = 0.032302975, Final residual = 7.0549501e-17, No Iterations 1
    ExecutionTime = 0.051792 s  ClockTime = 0 s
    
    Time = 38s
    
pyc DICPCG:  Solving for e, Initial residual = 0.014510665, Final residual = 4.3803314e-17, No Iterations 1
pyc DICPCG:  Solving for C_T2, Initial residual = 0.003391581, Final residual = 1.700319e-17, No Iterations 1
sic DICPCG:  Solving for e, Initial residual = 0.015198362, Final residual = 1.8621087e-16, No Iterations 1
sic DICPCG:  Solving for C_T2, Initial residual = 0.030983092, Final residual = 6.2827701e-17, No Iterations 1
    ExecutionTime = 0.052076 s  ClockTime = 0 s
    
    Time = 39s
    
pyc DICPCG:  Solving for e, Initial residual = 0.019285048, Final residual = 1.1791946e-16, No Iterations 1
pyc DICPCG:  Solving for C_T2, Initial residual = 0.0033484393, Final residual = 1.5563698e-17, No Iterations 1
sic DICPCG:  Solving for e, Initial residual = 0.017278183, Final residual = 3.1895643e-16, No Iterations 1
sic DICPCG:  Solving for C_T2, Initial residual = 0.029749048, Final residual = 7.5105969e-17, No Iterations 1
    ExecutionTime = 0.052354 s  ClockTime = 0 s
    
    Time = 40s
    
pyc DICPCG:  Solving for e, Initial residual = 0.014028089, Final residual = 2.08791e-16, No Iterations 1
pyc DICPCG:  Solving for C_T2, Initial residual = 0.0033069231, Final residual = 1.4261411e-17, No Iterations 1
sic DICPCG:  Solving for e, Initial residual = 0.016326657, Final residual = 4.1050804e-17, No Iterations 1
sic DICPCG:  Solving for C_T2, Initial residual = 0.028595046, Final residual = 6.3631066e-17, No Iterations 1
    ExecutionTime = 0.052642 s  ClockTime = 0 s
    
    Time = 41s
    
pyc DICPCG:  Solving for e, Initial residual = 0.01383077, Final residual = 1.1705691e-16, No Iterations 1
pyc DICPCG:  Solving for C_T2, Initial residual = 0.0032669928, Final residual = 1.3827687e-17, No Iterations 1
sic DICPCG:  Solving for e, Initial residual = 0.016501575, Final residual = 1.021054e-16, No Iterations 1
sic DICPCG:  Solving for C_T2, Initial residual = 0.027513945, Final residual = 4.57637e-17, No Iterations 1
    ExecutionTime = 0.052934 s  ClockTime = 0 s
    
    Time = 42s
    
pyc DICPCG:  Solving for e, Initial residual = 0.017935063, Final residual = 3.7421757e-17, No Iterations 1
pyc DICPCG:  Solving for C_T2, Initial residual = 0.0032285523, Final residual = 1.3970727e-17, No Iterations 1
sic DICPCG:  Solving for e, Initial residual = 0.015287597, Final residual = 1.7456118e-16, No Iterations 1
sic DICPCG:  Solving for C_T2, Initial residual = 0.026498518, Final residual = 6.6274155e-17, No Iterations 1
    ExecutionTime = 0.053243 s  ClockTime = 0 s
    
    Time = 43s
    
pyc DICPCG:  Solving for e, Initial residual = 0.012969399, Final residual = 4.7408027e-16, No Iterations 1
pyc DICPCG:  Solving for C_T2, Initial residual = 0.0031914782, Final residual = 1.5643565e-17, No Iterations 1
sic DICPCG:  Solving for e, Initial residual = 0.013572979, Final residual = 4.4580625e-16, No Iterations 1
sic DICPCG:  Solving for C_T2, Initial residual = 0.02554369, Final residual = 6.3232005e-17, No Iterations 1
    ExecutionTime = 0.053552 s  ClockTime = 0 s
    
    Time = 44s
    
pyc DICPCG:  Solving for e, Initial residual = 0.019950608, Final residual = 2.4629573e-16, No Iterations 1
pyc DICPCG:  Solving for C_T2, Initial residual = 0.0031557429, Final residual = 1.3312662e-17, No Iterations 1
sic DICPCG:  Solving for e, Initial residual = 0.012533586, Final residual = 1.3087631e-16, No Iterations 1
sic DICPCG:  Solving for C_T2, Initial residual = 0.024645119, Final residual = 5.1739965e-17, No Iterations 1
    ExecutionTime = 0.053877 s  ClockTime = 0 s
    
    Time = 45s
    
pyc DICPCG:  Solving for e, Initial residual = 0.013310195, Final residual = 8.2531111e-17, No Iterations 1
pyc DICPCG:  Solving for C_T2, Initial residual = 0.0031212752, Final residual = 1.4599825e-17, No Iterations 1
sic DICPCG:  Solving for e, Initial residual = 0.017447365, Final residual = 4.4548831e-17, No Iterations 1
sic DICPCG:  Solving for C_T2, Initial residual = 0.023797772, Final residual = 5.9260582e-17, No Iterations 1
    ExecutionTime = 0.054154 s  ClockTime = 0 s
    
    Time = 46s
    
pyc DICPCG:  Solving for e, Initial residual = 0.012532675, Final residual = 1.0966611e-16, No Iterations 1
pyc DICPCG:  Solving for C_T2, Initial residual = 0.0030880091, Final residual = 1.6083832e-17, No Iterations 1
sic DICPCG:  Solving for e, Initial residual = 0.014142143, Final residual = 8.6365656e-17, No Iterations 1
sic DICPCG:  Solving for C_T2, Initial residual = 0.022997721, Final residual = 5.1642273e-17, No Iterations 1
    ExecutionTime = 0.054447 s  ClockTime = 0 s
    
    Time = 47s
    
pyc DICPCG:  Solving for e, Initial residual = 0.012085205, Final residual = 4.8154815e-16, No Iterations 1
pyc DICPCG:  Solving for C_T2, Initial residual = 0.0030558437, Final residual = 1.5932977e-17, No Iterations 1
sic DICPCG:  Solving for e, Initial residual = 0.015232464, Final residual = 2.4335566e-16, No Iterations 1
sic DICPCG:  Solving for C_T2, Initial residual = 0.022241073, Final residual = 5.7630759e-17, No Iterations 1
    ExecutionTime = 0.054758 s  ClockTime = 0 s
    
    Time = 48s
    
pyc DICPCG:  Solving for e, Initial residual = 0.011887299, Final residual = 1.4722458e-17, No Iterations 1
pyc DICPCG:  Solving for C_T2, Initial residual = 0.0030247586, Final residual = 1.3582315e-17, No Iterations 1
sic DICPCG:  Solving for e, Initial residual = 0.014496205, Final residual = 1.9015525e-16, No Iterations 1
sic DICPCG:  Solving for C_T2, Initial residual = 0.021525133, Final residual = 5.5519245e-17, No Iterations 1
    ExecutionTime = 0.055042 s  ClockTime = 0 s
    
    Time = 49s
    
pyc DICPCG:  Solving for e, Initial residual = 0.021660624, Final residual = 5.5855795e-17, No Iterations 1
pyc DICPCG:  Solving for C_T2, Initial residual = 0.002994706, Final residual = 1.4777192e-17, No Iterations 1
sic DICPCG:  Solving for e, Initial residual = 0.016216989, Final residual = 3.9465008e-17, No Iterations 1
sic DICPCG:  Solving for C_T2, Initial residual = 0.020846387, Final residual = 5.0965489e-17, No Iterations 1
    ExecutionTime = 0.055332 s  ClockTime = 0 s
    
    Time = 50s
    
pyc DICPCG:  Solving for e, Initial residual = 0.012663671, Final residual = 4.6265059e-16, No Iterations 1
pyc DICPCG:  Solving for C_T2, Initial residual = 0.0029656358, Final residual = 1.1914888e-17, No Iterations 1
sic DICPCG:  Solving for e, Initial residual = 0.015519965, Final residual = 3.5754375e-16, No Iterations 1
sic DICPCG:  Solving for C_T2, Initial residual = 0.020202435, Final residual = 4.5933073e-17, No Iterations 1
    ExecutionTime = 0.055582 s  ClockTime = 0 s
    
    Time = 51s
    
pyc DICPCG:  Solving for e, Initial residual = 0.017535652, Final residual = 7.1289131e-17, No Iterations 1
pyc DICPCG:  Solving for C_T2, Initial residual = 0.002937501, Final residual = 1.2428352e-17, No Iterations 1
sic DICPCG:  Solving for e, Initial residual = 0.016450942, Final residual = 6.6374771e-17, No Iterations 1
sic DICPCG:  Solving for C_T2, Initial residual = 0.019590692, Final residual = 3.8627842e-17, No Iterations 1
    ExecutionTime = 0.05588 s  ClockTime = 0 s
    
    Time = 52s
    
pyc DICPCG:  Solving for e, Initial residual = 0.015980227, Final residual = 3.776598e-17, No Iterations 1
pyc DICPCG:  Solving for C_T2, Initial residual = 0.0029102479, Final residual = 1.1136689e-17, No Iterations 1
sic DICPCG:  Solving for e, Initial residual = 0.014029812, Final residual = 1.6462009e-16, No Iterations 1
sic DICPCG:  Solving for C_T2, Initial residual = 0.019008906, Final residual = 5.6081946e-17, No Iterations 1
    ExecutionTime = 0.056176 s  ClockTime = 0 s
    
    Time = 53s
    
pyc DICPCG:  Solving for e, Initial residual = 0.022700973, Final residual = 7.9156476e-17, No Iterations 1
pyc DICPCG:  Solving for C_T2, Initial residual = 0.0028838244, Final residual = 1.1719775e-17, No Iterations 1
sic DICPCG:  Solving for e, Initial residual = 0.020503824, Final residual = 1.7741135e-16, No Iterations 1
sic DICPCG:  Solving for C_T2, Initial residual = 0.018454997, Final residual = 4.6447817e-17, No Iterations 1
    ExecutionTime = 0.056453 s  ClockTime = 0 s
    
    Time = 54s
    
pyc DICPCG:  Solving for e, Initial residual = 0.017386882, Final residual = 1.5207449e-16, No Iterations 1
pyc DICPCG:  Solving for C_T2, Initial residual = 0.0028582132, Final residual = 1.1285355e-17, No Iterations 1
sic DICPCG:  Solving for e, Initial residual = 0.018390084, Final residual = 2.8969906e-16, No Iterations 1
sic DICPCG:  Solving for C_T2, Initial residual = 0.017927086, Final residual = 4.2254869e-17, No Iterations 1
    ExecutionTime = 0.056751 s  ClockTime = 0 s
    
    Time = 55s
    
pyc DICPCG:  Solving for e, Initial residual = 0.019310465, Final residual = 6.8458606e-17, No Iterations 1
pyc DICPCG:  Solving for C_T2, Initial residual = 0.0028333772, Final residual = 1.1228655e-17, No Iterations 1
sic DICPCG:  Solving for e, Initial residual = 0.019673039, Final residual = 1.790373e-16, No Iterations 1
sic DICPCG:  Solving for C_T2, Initial residual = 0.017423698, Final residual = 5.1063722e-17, No Iterations 1
    ExecutionTime = 0.057097 s  ClockTime = 0 s
    
    Time = 56s
    
pyc DICPCG:  Solving for e, Initial residual = 0.012252127, Final residual = 1.7852752e-16, No Iterations 1
pyc DICPCG:  Solving for C_T2, Initial residual = 0.0028092812, Final residual = 1.117405e-17, No Iterations 1
sic DICPCG:  Solving for e, Initial residual = 0.016635106, Final residual = 2.3665724e-16, No Iterations 1
sic DICPCG:  Solving for C_T2, Initial residual = 0.016943051, Final residual = 4.1728331e-17, No Iterations 1
    ExecutionTime = 0.057384 s  ClockTime = 0 s
    
    Time = 57s
    
pyc DICPCG:  Solving for e, Initial residual = 0.022222099, Final residual = 1.1569234e-16, No Iterations 1
pyc DICPCG:  Solving for C_T2, Initial residual = 0.0027858922, Final residual = 1.2789712e-17, No Iterations 1
sic DICPCG:  Solving for e, Initial residual = 0.015656636, Final residual = 3.4661531e-16, No Iterations 1
sic DICPCG:  Solving for C_T2, Initial residual = 0.016483662, Final residual = 3.9639292e-17, No Iterations 1
    ExecutionTime = 0.057728 s  ClockTime = 0 s
    
    Time = 58s
    
pyc DICPCG:  Solving for e, Initial residual = 0.01584032, Final residual = 2.940672e-16, No Iterations 1
pyc DICPCG:  Solving for C_T2, Initial residual = 0.0027631559, Final residual = 1.0475147e-17, No Iterations 1
sic DICPCG:  Solving for e, Initial residual = 0.015841063, Final residual = 4.7719112e-16, No Iterations 1
sic DICPCG:  Solving for C_T2, Initial residual = 0.01604406, Final residual = 4.16288e-17, No Iterations 1
    ExecutionTime = 0.057985 s  ClockTime = 0 s
    
    Time = 59s
    
pyc DICPCG:  Solving for e, Initial residual = 0.02217478, Final residual = 2.8313765e-17, No Iterations 1
pyc DICPCG:  Solving for C_T2, Initial residual = 0.0027410642, Final residual = 1.1155172e-17, No Iterations 1
sic DICPCG:  Solving for e, Initial residual = 0.017624171, Final residual = 1.0760707e-16, No Iterations 1
sic DICPCG:  Solving for C_T2, Initial residual = 0.015623302, Final residual = 3.8448272e-17, No Iterations 1
    ExecutionTime = 0.058262 s  ClockTime = 0 s
    
    Time = 60s
    
pyc DICPCG:  Solving for e, Initial residual = 0.012398159, Final residual = 2.0645102e-17, No Iterations 1
pyc DICPCG:  Solving for C_T2, Initial residual = 0.0027195915, Final residual = 9.4549012e-18, No Iterations 1
sic DICPCG:  Solving for e, Initial residual = 0.017411047, Final residual = 6.7488331e-17, No Iterations 1
sic DICPCG:  Solving for C_T2, Initial residual = 0.015220304, Final residual = 5.1814144e-17, No Iterations 1
    ExecutionTime = 0.058579 s  ClockTime = 0 s
    
    Time = 61s
    
pyc DICPCG:  Solving for e, Initial residual = 0.012742259, Final residual = 3.7974431e-16, No Iterations 1
pyc DICPCG:  Solving for C_T2, Initial residual = 0.0026987107, Final residual = 1.0751291e-17, No Iterations 1
sic DICPCG:  Solving for e, Initial residual = 0.017433901, Final residual = 7.0161182e-17, No Iterations 1
sic DICPCG:  Solving for C_T2, Initial residual = 0.014834006, Final residual = 3.8992505e-17, No Iterations 1
    ExecutionTime = 0.058848 s  ClockTime = 0 s
    
    Time = 62s
    
pyc DICPCG:  Solving for e, Initial residual = 0.012459966, Final residual = 4.2525475e-17, No Iterations 1
pyc DICPCG:  Solving for C_T2, Initial residual = 0.0026783965, Final residual = 1.0271066e-17, No Iterations 1
sic DICPCG:  Solving for e, Initial residual = 0.017269303, Final residual = 2.4532561e-16, No Iterations 1
sic DICPCG:  Solving for C_T2, Initial residual = 0.014463168, Final residual = 3.9548617e-17, No Iterations 1
    ExecutionTime = 0.059121 s  ClockTime = 0 s
    
    Time = 63s
    
pyc DICPCG:  Solving for e, Initial residual = 0.01639228, Final residual = 4.5441068e-16, No Iterations 1
pyc DICPCG:  Solving for C_T2, Initial residual = 0.0026586244, Final residual = 9.4829375e-18, No Iterations 1
sic DICPCG:  Solving for e, Initial residual = 0.016123677, Final residual = 2.2723826e-16, No Iterations 1
sic DICPCG:  Solving for C_T2, Initial residual = 0.014106897, Final residual = 4.4248205e-17, No Iterations 1
    ExecutionTime = 0.059431 s  ClockTime = 0 s
    
    Time = 64s
    
pyc DICPCG:  Solving for e, Initial residual = 0.025272961, Final residual = 9.5408725e-17, No Iterations 1
pyc DICPCG:  Solving for C_T2, Initial residual = 0.0026393714, Final residual = 1.013796e-17, No Iterations 1
sic DICPCG:  Solving for e, Initial residual = 0.01987398, Final residual = 4.5294501e-17, No Iterations 1
sic DICPCG:  Solving for C_T2, Initial residual = 0.013764541, Final residual = 3.5521971e-17, No Iterations 1
    ExecutionTime = 0.059704 s  ClockTime = 0 s
    
    Time = 65s
    
pyc DICPCG:  Solving for e, Initial residual = 0.016675049, Final residual = 1.8283052e-17, No Iterations 1
pyc DICPCG:  Solving for C_T2, Initial residual = 0.0026206155, Final residual = 1.0948763e-17, No Iterations 1
sic DICPCG:  Solving for e, Initial residual = 0.015757272, Final residual = 3.5762434e-17, No Iterations 1
sic DICPCG:  Solving for C_T2, Initial residual = 0.013435414, Final residual = 3.7887325e-17, No Iterations 1
    ExecutionTime = 0.06003 s  ClockTime = 0 s
    
    Time = 66s
    
pyc DICPCG:  Solving for e, Initial residual = 0.012493385, Final residual = 4.0865696e-16, No Iterations 1
pyc DICPCG:  Solving for C_T2, Initial residual = 0.0026023357, Final residual = 1.035333e-17, No Iterations 1
sic DICPCG:  Solving for e, Initial residual = 0.016721231, Final residual = 2.2034642e-16, No Iterations 1
sic DICPCG:  Solving for C_T2, Initial residual = 0.01311879, Final residual = 3.8114974e-17, No Iterations 1
    ExecutionTime = 0.060306 s  ClockTime = 0 s
    
    Time = 67s
    
pyc DICPCG:  Solving for e, Initial residual = 0.015694767, Final residual = 2.5740175e-16, No Iterations 1
pyc DICPCG:  Solving for C_T2, Initial residual = 0.0025845121, Final residual = 1.0155241e-17, No Iterations 1
sic DICPCG:  Solving for e, Initial residual = 0.015898609, Final residual = 1.6799841e-16, No Iterations 1
sic DICPCG:  Solving for C_T2, Initial residual = 0.012813992, Final residual = 3.8026222e-17, No Iterations 1
    ExecutionTime = 0.060564 s  ClockTime = 0 s
    
    Time = 68s
    
pyc DICPCG:  Solving for e, Initial residual = 0.015114294, Final residual = 6.7481074e-17, No Iterations 1
pyc DICPCG:  Solving for C_T2, Initial residual = 0.0025671255, Final residual = 9.8440516e-18, No Iterations 1
sic DICPCG:  Solving for e, Initial residual = 0.01531875, Final residual = 1.213512e-16, No Iterations 1
sic DICPCG:  Solving for C_T2, Initial residual = 0.012520237, Final residual = 3.0602539e-17, No Iterations 1
    ExecutionTime = 0.060888 s  ClockTime = 0 s
    
    Time = 69s
    
pyc DICPCG:  Solving for e, Initial residual = 0.011797446, Final residual = 3.3231487e-16, No Iterations 1
pyc DICPCG:  Solving for C_T2, Initial residual = 0.0025501547, Final residual = 9.5798233e-18, No Iterations 1
sic DICPCG:  Solving for e, Initial residual = 0.015589375, Final residual = 6.7615725e-16, No Iterations 1
sic DICPCG:  Solving for C_T2, Initial residual = 0.012236794, Final residual = 3.872734e-17, No Iterations 1
    ExecutionTime = 0.061135 s  ClockTime = 0 s
    
    Time = 70s
    
pyc DICPCG:  Solving for e, Initial residual = 0.019446551, Final residual = 7.7700149e-17, No Iterations 1
pyc DICPCG:  Solving for C_T2, Initial residual = 0.0025335754, Final residual = 9.9518412e-18, No Iterations 1
sic DICPCG:  Solving for e, Initial residual = 0.015091954, Final residual = 3.9552522e-16, No Iterations 1
sic DICPCG:  Solving for C_T2, Initial residual = 0.011963448, Final residual = 3.4945291e-17, No Iterations 1
    ExecutionTime = 0.061443 s  ClockTime = 0 s
    
    Time = 71s
    
pyc DICPCG:  Solving for e, Initial residual = 0.015635578, Final residual = 1.8850136e-16, No Iterations 1
pyc DICPCG:  Solving for C_T2, Initial residual = 0.0025173818, Final residual = 9.7556477e-18, No Iterations 1
sic DICPCG:  Solving for e, Initial residual = 0.015342617, Final residual = 4.8523301e-16, No Iterations 1
sic DICPCG:  Solving for C_T2, Initial residual = 0.011699686, Final residual = 3.0348331e-17, No Iterations 1
    ExecutionTime = 0.061718 s  ClockTime = 0 s
    
    Time = 72s
    
pyc DICPCG:  Solving for e, Initial residual = 0.020725068, Final residual = 1.4479533e-16, No Iterations 1
pyc DICPCG:  Solving for C_T2, Initial residual = 0.002501558, Final residual = 9.9943755e-18, No Iterations 1
sic DICPCG:  Solving for e, Initial residual = 0.020084443, Final residual = 1.0460383e-16, No Iterations 1
sic DICPCG:  Solving for C_T2, Initial residual = 0.011445031, Final residual = 3.6583252e-17, No Iterations 1
    ExecutionTime = 0.062011 s  ClockTime = 0 s
    
    Time = 73s
    
pyc DICPCG:  Solving for e, Initial residual = 0.013318214, Final residual = 2.165502e-17, No Iterations 1
pyc DICPCG:  Solving for C_T2, Initial residual = 0.0024860889, Final residual = 9.5831386e-18, No Iterations 1
sic DICPCG:  Solving for e, Initial residual = 0.017638596, Final residual = 3.0842719e-16, No Iterations 1
sic DICPCG:  Solving for C_T2, Initial residual = 0.011199036, Final residual = 2.969905e-17, No Iterations 1
    ExecutionTime = 0.062322 s  ClockTime = 0 s
    
    Time = 74s
    
pyc DICPCG:  Solving for e, Initial residual = 0.024444367, Final residual = 7.8197645e-17, No Iterations 1
pyc DICPCG:  Solving for C_T2, Initial residual = 0.0024709601, Final residual = 1.0472967e-17, No Iterations 1
sic DICPCG:  Solving for e, Initial residual = 0.016889864, Final residual = 2.9375816e-16, No Iterations 1
sic DICPCG:  Solving for C_T2, Initial residual = 0.010961281, Final residual = 3.3321747e-17, No Iterations 1
    ExecutionTime = 0.06262 s  ClockTime = 0 s
    
    Time = 75s
    
pyc DICPCG:  Solving for e, Initial residual = 0.019591529, Final residual = 7.0526515e-17, No Iterations 1
pyc DICPCG:  Solving for C_T2, Initial residual = 0.0024561577, Final residual = 8.6650375e-18, No Iterations 1
sic DICPCG:  Solving for e, Initial residual = 0.01578924, Final residual = 6.3743138e-17, No Iterations 1
sic DICPCG:  Solving for C_T2, Initial residual = 0.010731118, Final residual = 3.3467673e-17, No Iterations 1
    ExecutionTime = 0.06293 s  ClockTime = 0 s
    
    Time = 76s
    
pyc DICPCG:  Solving for e, Initial residual = 0.016776476, Final residual = 3.7635194e-16, No Iterations 1
pyc DICPCG:  Solving for C_T2, Initial residual = 0.0024416684, Final residual = 9.1384328e-18, No Iterations 1
sic DICPCG:  Solving for e, Initial residual = 0.01707922, Final residual = 1.2285379e-16, No Iterations 1
sic DICPCG:  Solving for C_T2, Initial residual = 0.010508351, Final residual = 2.7087365e-17, No Iterations 1
    ExecutionTime = 0.063237 s  ClockTime = 0 s
    
    Time = 77s
    
pyc DICPCG:  Solving for e, Initial residual = 0.012931843, Final residual = 4.8375904e-17, No Iterations 1
pyc DICPCG:  Solving for C_T2, Initial residual = 0.0024274798, Final residual = 9.3520023e-18, No Iterations 1
sic DICPCG:  Solving for e, Initial residual = 0.015754552, Final residual = 1.2616038e-16, No Iterations 1
sic DICPCG:  Solving for C_T2, Initial residual = 0.010292738, Final residual = 3.3356016e-17, No Iterations 1
    ExecutionTime = 0.063536 s  ClockTime = 0 s
    
    Time = 78s
    
pyc DICPCG:  Solving for e, Initial residual = 0.0117589, Final residual = 2.3047992e-16, No Iterations 1
pyc DICPCG:  Solving for C_T2, Initial residual = 0.0024135715, Final residual = 1.0214038e-17, No Iterations 1
sic DICPCG:  Solving for e, Initial residual = 0.015457511, Final residual = 3.8800324e-16, No Iterations 1
sic DICPCG:  Solving for C_T2, Initial residual = 0.010083952, Final residual = 2.5651055e-17, No Iterations 1
    ExecutionTime = 0.063824 s  ClockTime = 0 s
    
    Time = 79s
    
pyc DICPCG:  Solving for e, Initial residual = 0.023214659, Final residual = 8.8323972e-17, No Iterations 1
pyc DICPCG:  Solving for C_T2, Initial residual = 0.0023999381, Final residual = 9.0516049e-18, No Iterations 1
sic DICPCG:  Solving for e, Initial residual = 0.014141226, Final residual = 2.3167715e-16, No Iterations 1
sic DICPCG:  Solving for C_T2, Initial residual = 0.0098816883, Final residual = 3.0362192e-17, No Iterations 1
    ExecutionTime = 0.064104 s  ClockTime = 0 s
    
    Time = 80s
    
pyc DICPCG:  Solving for e, Initial residual = 0.01414026, Final residual = 5.4518763e-16, No Iterations 1
pyc DICPCG:  Solving for C_T2, Initial residual = 0.0023865711, Final residual = 1.0165534e-17, No Iterations 1
sic DICPCG:  Solving for e, Initial residual = 0.014728997, Final residual = 3.2935302e-16, No Iterations 1
sic DICPCG:  Solving for C_T2, Initial residual = 0.0096856565, Final residual = 2.8714232e-17, No Iterations 1
    ExecutionTime = 0.064414 s  ClockTime = 0 s
    
    Time = 81s
    
pyc DICPCG:  Solving for e, Initial residual = 0.022269953, Final residual = 2.9973798e-16, No Iterations 1
pyc DICPCG:  Solving for C_T2, Initial residual = 0.0023734597, Final residual = 9.297088e-18, No Iterations 1
sic DICPCG:  Solving for e, Initial residual = 0.01297403, Final residual = 1.0263154e-16, No Iterations 1
sic DICPCG:  Solving for C_T2, Initial residual = 0.0094955847, Final residual = 3.0926352e-17, No Iterations 1
    ExecutionTime = 0.064696 s  ClockTime = 0 s
    
    Time = 82s
    
pyc DICPCG:  Solving for e, Initial residual = 0.01277995, Final residual = 2.3412548e-16, No Iterations 1
pyc DICPCG:  Solving for C_T2, Initial residual = 0.0023605938, Final residual = 8.8505156e-18, No Iterations 1
sic DICPCG:  Solving for e, Initial residual = 0.013609613, Final residual = 5.4918752e-17, No Iterations 1
sic DICPCG:  Solving for C_T2, Initial residual = 0.0093111185, Final residual = 3.1199118e-17, No Iterations 1
    ExecutionTime = 0.064955 s  ClockTime = 0 s
    
    Time = 83s
    
pyc DICPCG:  Solving for e, Initial residual = 0.010735765, Final residual = 1.1379454e-16, No Iterations 1
pyc DICPCG:  Solving for C_T2, Initial residual = 0.0023479638, Final residual = 9.0994856e-18, No Iterations 1
sic DICPCG:  Solving for e, Initial residual = 0.014360441, Final residual = 1.3655218e-16, No Iterations 1
sic DICPCG:  Solving for C_T2, Initial residual = 0.0091319714, Final residual = 2.5499452e-17, No Iterations 1
    ExecutionTime = 0.065214 s  ClockTime = 0 s
    
    Time = 84s
    
pyc DICPCG:  Solving for e, Initial residual = 0.01838854, Final residual = 1.5708524e-16, No Iterations 1
pyc DICPCG:  Solving for C_T2, Initial residual = 0.0023355602, Final residual = 8.6270045e-18, No Iterations 1
sic DICPCG:  Solving for e, Initial residual = 0.01510185, Final residual = 1.8196472e-16, No Iterations 1
sic DICPCG:  Solving for C_T2, Initial residual = 0.0089580489, Final residual = 2.9583063e-17, No Iterations 1
    ExecutionTime = 0.065519 s  ClockTime = 0 s
    
    Time = 85s
    
pyc DICPCG:  Solving for e, Initial residual = 0.017910778, Final residual = 2.7095077e-16, No Iterations 1
pyc DICPCG:  Solving for C_T2, Initial residual = 0.0023233742, Final residual = 1.0280401e-17, No Iterations 1
sic DICPCG:  Solving for e, Initial residual = 0.013988316, Final residual = 1.5076134e-16, No Iterations 1
sic DICPCG:  Solving for C_T2, Initial residual = 0.0087891562, Final residual = 2.4506999e-17, No Iterations 1
    ExecutionTime = 0.065789 s  ClockTime = 0 s
    
    Time = 86s
    
pyc DICPCG:  Solving for e, Initial residual = 0.011769319, Final residual = 6.9088164e-17, No Iterations 1
pyc DICPCG:  Solving for C_T2, Initial residual = 0.0023113973, Final residual = 9.1666141e-18, No Iterations 1
sic DICPCG:  Solving for e, Initial residual = 0.014836507, Final residual = 1.1448801e-16, No Iterations 1
sic DICPCG:  Solving for C_T2, Initial residual = 0.0086250879, Final residual = 2.3032858e-17, No Iterations 1
    ExecutionTime = 0.066081 s  ClockTime = 0 s
    
    Time = 87s
    
pyc DICPCG:  Solving for e, Initial residual = 0.022438538, Final residual = 1.8880489e-16, No Iterations 1
pyc DICPCG:  Solving for C_T2, Initial residual = 0.0022996212, Final residual = 9.6783488e-18, No Iterations 1
sic DICPCG:  Solving for e, Initial residual = 0.018563212, Final residual = 5.9185844e-17, No Iterations 1
sic DICPCG:  Solving for C_T2, Initial residual = 0.0084656497, Final residual = 2.5688484e-17, No Iterations 1
    ExecutionTime = 0.066379 s  ClockTime = 0 s
    
    Time = 88s
    
pyc DICPCG:  Solving for e, Initial residual = 0.011957326, Final residual = 1.8272654e-16, No Iterations 1
pyc DICPCG:  Solving for C_T2, Initial residual = 0.0022880381, Final residual = 9.073711e-18, No Iterations 1
sic DICPCG:  Solving for e, Initial residual = 0.01744072, Final residual = 1.2179521e-16, No Iterations 1
sic DICPCG:  Solving for C_T2, Initial residual = 0.0083106575, Final residual = 2.7360663e-17, No Iterations 1
    ExecutionTime = 0.066716 s  ClockTime = 0 s
    
    Time = 89s
    
pyc DICPCG:  Solving for e, Initial residual = 0.012944399, Final residual = 5.1084369e-17, No Iterations 1
pyc DICPCG:  Solving for C_T2, Initial residual = 0.0022766406, Final residual = 8.6745687e-18, No Iterations 1
sic DICPCG:  Solving for e, Initial residual = 0.018058342, Final residual = 5.6213045e-16, No Iterations 1
sic DICPCG:  Solving for C_T2, Initial residual = 0.0081599366, Final residual = 2.6685535e-17, No Iterations 1
    ExecutionTime = 0.067058 s  ClockTime = 0 s
    
    Time = 90s
    
pyc DICPCG:  Solving for e, Initial residual = 0.02005006, Final residual = 5.9936644e-17, No Iterations 1
pyc DICPCG:  Solving for C_T2, Initial residual = 0.0022654212, Final residual = 9.2319904e-18, No Iterations 1
sic DICPCG:  Solving for e, Initial residual = 0.019364264, Final residual = 3.1094054e-16, No Iterations 1
sic DICPCG:  Solving for C_T2, Initial residual = 0.0080132447, Final residual = 2.9157366e-17, No Iterations 1
    ExecutionTime = 0.067391 s  ClockTime = 0 s
    
    Time = 91s
    
pyc DICPCG:  Solving for e, Initial residual = 0.012794507, Final residual = 1.8211549e-16, No Iterations 1
pyc DICPCG:  Solving for C_T2, Initial residual = 0.0022543733, Final residual = 8.592437e-18, No Iterations 1
sic DICPCG:  Solving for e, Initial residual = 0.016865682, Final residual = 6.8696617e-17, No Iterations 1
sic DICPCG:  Solving for C_T2, Initial residual = 0.0078704762, Final residual = 2.6402725e-17, No Iterations 1
    ExecutionTime = 0.067661 s  ClockTime = 0 s
    
    Time = 92s
    
pyc DICPCG:  Solving for e, Initial residual = 0.011212724, Final residual = 3.4839832e-16, No Iterations 1
pyc DICPCG:  Solving for C_T2, Initial residual = 0.0022434902, Final residual = 8.8644676e-18, No Iterations 1
sic DICPCG:  Solving for e, Initial residual = 0.015916697, Final residual = 3.3545561e-16, No Iterations 1
sic DICPCG:  Solving for C_T2, Initial residual = 0.0077314382, Final residual = 2.6142805e-17, No Iterations 1
    ExecutionTime = 0.068004 s  ClockTime = 0 s
    
    Time = 93s
    
pyc DICPCG:  Solving for e, Initial residual = 0.015222675, Final residual = 1.2056603e-17, No Iterations 1
pyc DICPCG:  Solving for C_T2, Initial residual = 0.0022327654, Final residual = 9.2393771e-18, No Iterations 1
sic DICPCG:  Solving for e, Initial residual = 0.013523675, Final residual = 8.7141581e-17, No Iterations 1
sic DICPCG:  Solving for C_T2, Initial residual = 0.007596051, Final residual = 2.3192955e-17, No Iterations 1
    ExecutionTime = 0.068307 s  ClockTime = 0 s
    
    Time = 94s
    
pyc DICPCG:  Solving for e, Initial residual = 0.016248761, Final residual = 2.8815568e-16, No Iterations 1
pyc DICPCG:  Solving for C_T2, Initial residual = 0.002222193, Final residual = 9.6265071e-18, No Iterations 1
sic DICPCG:  Solving for e, Initial residual = 0.013509048, Final residual = 3.9023215e-17, No Iterations 1
sic DICPCG:  Solving for C_T2, Initial residual = 0.0074641954, Final residual = 1.9886013e-17, No Iterations 1
    ExecutionTime = 0.068601 s  ClockTime = 0 s
    
    Time = 95s
    
pyc DICPCG:  Solving for e, Initial residual = 0.015342856, Final residual = 1.2280109e-16, No Iterations 1
pyc DICPCG:  Solving for C_T2, Initial residual = 0.002211767, Final residual = 1.0264223e-17, No Iterations 1
sic DICPCG:  Solving for e, Initial residual = 0.011948015, Final residual = 1.5899567e-16, No Iterations 1
sic DICPCG:  Solving for C_T2, Initial residual = 0.0073357426, Final residual = 2.3098979e-17, No Iterations 1
    ExecutionTime = 0.068906 s  ClockTime = 0 s
    
    Time = 96s
    
pyc DICPCG:  Solving for e, Initial residual = 0.013507842, Final residual = 1.5666974e-16, No Iterations 1
pyc DICPCG:  Solving for C_T2, Initial residual = 0.0022014819, Final residual = 9.5171395e-18, No Iterations 1
sic DICPCG:  Solving for e, Initial residual = 0.014823143, Final residual = 7.9642833e-17, No Iterations 1
sic DICPCG:  Solving for C_T2, Initial residual = 0.0072105697, Final residual = 2.3407885e-17, No Iterations 1
    ExecutionTime = 0.069203 s  ClockTime = 0 s
    
    Time = 97s
    
pyc DICPCG:  Solving for e, Initial residual = 0.016353801, Final residual = 5.5619323e-17, No Iterations 1
pyc DICPCG:  Solving for C_T2, Initial residual = 0.0021913324, Final residual = 8.6510507e-18, No Iterations 1
sic DICPCG:  Solving for e, Initial residual = 0.016768763, Final residual = 6.9043013e-17, No Iterations 1
sic DICPCG:  Solving for C_T2, Initial residual = 0.0070885598, Final residual = 2.3587759e-17, No Iterations 1
    ExecutionTime = 0.069469 s  ClockTime = 0 s
    
    Time = 98s
    
pyc DICPCG:  Solving for e, Initial residual = 0.014452542, Final residual = 2.9919405e-17, No Iterations 1
pyc DICPCG:  Solving for C_T2, Initial residual = 0.0021813132, Final residual = 8.5776353e-18, No Iterations 1
sic DICPCG:  Solving for e, Initial residual = 0.014432571, Final residual = 1.0706099e-16, No Iterations 1
sic DICPCG:  Solving for C_T2, Initial residual = 0.0069696014, Final residual = 2.2210487e-17, No Iterations 1
    ExecutionTime = 0.069765 s  ClockTime = 0 s
    
    Time = 99s
    
pyc DICPCG:  Solving for e, Initial residual = 0.012833709, Final residual = 1.5319569e-16, No Iterations 1
pyc DICPCG:  Solving for C_T2, Initial residual = 0.0021714194, Final residual = 9.2097931e-18, No Iterations 1
sic DICPCG:  Solving for e, Initial residual = 0.018511146, Final residual = 2.2982124e-16, No Iterations 1
sic DICPCG:  Solving for C_T2, Initial residual = 0.0068535418, Final residual = 1.7677341e-17, No Iterations 1
    ExecutionTime = 0.070068 s  ClockTime = 0 s
    
    Time = 100s
    
pyc DICPCG:  Solving for e, Initial residual = 0.024121293, Final residual = 2.9572281e-16, No Iterations 1
pyc DICPCG:  Solving for C_T2, Initial residual = 0.0021616463, Final residual = 8.7287626e-18, No Iterations 1
sic DICPCG:  Solving for e, Initial residual = 0.018985241, Final residual = 2.7518101e-16, No Iterations 1
sic DICPCG:  Solving for C_T2, Initial residual = 0.006740297, Final residual = 1.8267165e-17, No Iterations 1
    ExecutionTime = 0.072709 s  ClockTime = 0 s
    
    Time = 101s
    
pyc DICPCG:  Solving for e, Initial residual = 0.01733506, Final residual = 1.3133169e-16, No Iterations 1
pyc DICPCG:  Solving for C_T2, Initial residual = 0.0021519894, Final residual = 1.0396759e-17, No Iterations 1
sic DICPCG:  Solving for e, Initial residual = 0.015357187, Final residual = 4.4125015e-17, No Iterations 1
sic DICPCG:  Solving for C_T2, Initial residual = 0.0066298026, Final residual = 1.703399e-17, No Iterations 1
    ExecutionTime = 0.073044 s  ClockTime = 0 s
    
    Time = 102s
    
pyc DICPCG:  Solving for e, Initial residual = 0.012649102, Final residual = 7.8807294e-17, No Iterations 1
pyc DICPCG:  Solving for C_T2, Initial residual = 0.0021424442, Final residual = 8.5022864e-18, No Iterations 1
sic DICPCG:  Solving for e, Initial residual = 0.016377554, Final residual = 1.5001822e-16, No Iterations 1
sic DICPCG:  Solving for C_T2, Initial residual = 0.0065219456, Final residual = 1.8764985e-17, No Iterations 1
    ExecutionTime = 0.073391 s  ClockTime = 0 s
    
    Time = 103s
    
pyc DICPCG:  Solving for e, Initial residual = 0.010390002, Final residual = 1.8009206e-16, No Iterations 1
pyc DICPCG:  Solving for C_T2, Initial residual = 0.0021330065, Final residual = 8.5760631e-18, No Iterations 1
sic DICPCG:  Solving for e, Initial residual = 0.018820494, Final residual = 4.5974764e-17, No Iterations 1
sic DICPCG:  Solving for C_T2, Initial residual = 0.0064166158, Final residual = 2.0101077e-17, No Iterations 1
    ExecutionTime = 0.073659 s  ClockTime = 0 s
    
    Time = 104s
    
pyc DICPCG:  Solving for e, Initial residual = 0.009930226, Final residual = 8.8264772e-17, No Iterations 1
pyc DICPCG:  Solving for C_T2, Initial residual = 0.0021236725, Final residual = 8.6173549e-18, No Iterations 1
sic DICPCG:  Solving for e, Initial residual = 0.014894592, Final residual = 3.8096902e-17, No Iterations 1
sic DICPCG:  Solving for C_T2, Initial residual = 0.0063137729, Final residual = 1.8586166e-17, No Iterations 1
    ExecutionTime = 0.073986 s  ClockTime = 0 s
    
    Time = 105s
    
pyc DICPCG:  Solving for e, Initial residual = 0.012156453, Final residual = 1.6932615e-16, No Iterations 1
pyc DICPCG:  Solving for C_T2, Initial residual = 0.0021144381, Final residual = 8.2565127e-18, No Iterations 1
sic DICPCG:  Solving for e, Initial residual = 0.018051937, Final residual = 2.1961826e-16, No Iterations 1
sic DICPCG:  Solving for C_T2, Initial residual = 0.0062133356, Final residual = 1.9733598e-17, No Iterations 1
    ExecutionTime = 0.074335 s  ClockTime = 0 s
    
    Time = 106s
    
pyc DICPCG:  Solving for e, Initial residual = 0.016866074, Final residual = 6.1140984e-17, No Iterations 1
pyc DICPCG:  Solving for C_T2, Initial residual = 0.0021052997, Final residual = 8.2440817e-18, No Iterations 1
sic DICPCG:  Solving for e, Initial residual = 0.01545784, Final residual = 1.3201525e-16, No Iterations 1
sic DICPCG:  Solving for C_T2, Initial residual = 0.006115226, Final residual = 1.8887484e-17, No Iterations 1
    ExecutionTime = 0.074672 s  ClockTime = 0 s
    
    Time = 107s
    
pyc DICPCG:  Solving for e, Initial residual = 0.011119715, Final residual = 1.7015382e-16, No Iterations 1
pyc DICPCG:  Solving for C_T2, Initial residual = 0.0020962537, Final residual = 8.8039138e-18, No Iterations 1
sic DICPCG:  Solving for e, Initial residual = 0.015981674, Final residual = 1.5682357e-16, No Iterations 1
sic DICPCG:  Solving for C_T2, Initial residual = 0.0060193694, Final residual = 1.9550991e-17, No Iterations 1
    ExecutionTime = 0.074969 s  ClockTime = 0 s
    
    Time = 108s
    
pyc DICPCG:  Solving for e, Initial residual = 0.011088545, Final residual = 1.6656865e-16, No Iterations 1
pyc DICPCG:  Solving for C_T2, Initial residual = 0.0020872967, Final residual = 8.4992794e-18, No Iterations 1
sic DICPCG:  Solving for e, Initial residual = 0.014630499, Final residual = 6.01696e-17, No Iterations 1
sic DICPCG:  Solving for C_T2, Initial residual = 0.0059256945, Final residual = 1.8415706e-17, No Iterations 1
    ExecutionTime = 0.075358 s  ClockTime = 0 s
    
    Time = 109s
    
pyc DICPCG:  Solving for e, Initial residual = 0.010821459, Final residual = 2.6934607e-16, No Iterations 1
pyc DICPCG:  Solving for C_T2, Initial residual = 0.0020784255, Final residual = 7.3517081e-18, No Iterations 1
sic DICPCG:  Solving for e, Initial residual = 0.014589596, Final residual = 1.4720713e-16, No Iterations 1
sic DICPCG:  Solving for C_T2, Initial residual = 0.0058341326, Final residual = 1.7152141e-17, No Iterations 1
    ExecutionTime = 0.075647 s  ClockTime = 0 s
    
    Time = 110s
    
pyc DICPCG:  Solving for e, Initial residual = 0.015421052, Final residual = 4.9522988e-17, No Iterations 1
pyc DICPCG:  Solving for C_T2, Initial residual = 0.0020696369, Final residual = 8.9617602e-18, No Iterations 1
sic DICPCG:  Solving for e, Initial residual = 0.0185697, Final residual = 2.6991598e-16, No Iterations 1
sic DICPCG:  Solving for C_T2, Initial residual = 0.0057445679, Final residual = 1.7999107e-17, No Iterations 1
    ExecutionTime = 0.075928 s  ClockTime = 0 s
    
    Time = 111s
    
pyc DICPCG:  Solving for e, Initial residual = 0.021541983, Final residual = 3.3743911e-17, No Iterations 1
pyc DICPCG:  Solving for C_T2, Initial residual = 0.0020609278, Final residual = 7.0934862e-18, No Iterations 1
sic DICPCG:  Solving for e, Initial residual = 0.015709166, Final residual = 1.6689066e-16, No Iterations 1
sic DICPCG:  Solving for C_T2, Initial residual = 0.0056569858, Final residual = 1.8416244e-17, No Iterations 1
    ExecutionTime = 0.076232 s  ClockTime = 0 s
    
    Time = 112s
    
pyc DICPCG:  Solving for e, Initial residual = 0.015440383, Final residual = 7.0280799e-17, No Iterations 1
pyc DICPCG:  Solving for C_T2, Initial residual = 0.0020522955, Final residual = 8.6536291e-18, No Iterations 1
sic DICPCG:  Solving for e, Initial residual = 0.014274741, Final residual = 3.014473e-16, No Iterations 1
sic DICPCG:  Solving for C_T2, Initial residual = 0.0055713299, Final residual = 1.9209336e-17, No Iterations 1
    ExecutionTime = 0.0765 s  ClockTime = 0 s
    
    Time = 113s
    
pyc DICPCG:  Solving for e, Initial residual = 0.022219285, Final residual = 1.2582408e-16, No Iterations 1
pyc DICPCG:  Solving for C_T2, Initial residual = 0.002043735, Final residual = 8.7873483e-18, No Iterations 1
sic DICPCG:  Solving for e, Initial residual = 0.01450334, Final residual = 3.0294084e-16, No Iterations 1
sic DICPCG:  Solving for C_T2, Initial residual = 0.005487542, Final residual = 1.6951769e-17, No Iterations 1
    ExecutionTime = 0.076835 s  ClockTime = 0 s
    
    Time = 114s
    
pyc DICPCG:  Solving for e, Initial residual = 0.0093432513, Final residual = 1.2251152e-16, No Iterations 1
pyc DICPCG:  Solving for C_T2, Initial residual = 0.0020352444, Final residual = 8.3756647e-18, No Iterations 1
sic DICPCG:  Solving for e, Initial residual = 0.01603652, Final residual = 3.2071006e-16, No Iterations 1
sic DICPCG:  Solving for C_T2, Initial residual = 0.0054055661, Final residual = 1.6074694e-17, No Iterations 1
    ExecutionTime = 0.077171 s  ClockTime = 0 s
    
    Time = 115s
    
pyc DICPCG:  Solving for e, Initial residual = 0.021808087, Final residual = 1.1615589e-16, No Iterations 1
pyc DICPCG:  Solving for C_T2, Initial residual = 0.0020268225, Final residual = 8.5579406e-18, No Iterations 1
sic DICPCG:  Solving for e, Initial residual = 0.016005041, Final residual = 2.1534478e-16, No Iterations 1
sic DICPCG:  Solving for C_T2, Initial residual = 0.0053253183, Final residual = 1.947892e-17, No Iterations 1
    ExecutionTime = 0.077443 s  ClockTime = 0 s
    
    Time = 116s
    
pyc DICPCG:  Solving for e, Initial residual = 0.010727431, Final residual = 5.0361203e-16, No Iterations 1
pyc DICPCG:  Solving for C_T2, Initial residual = 0.0020184669, Final residual = 8.7389417e-18, No Iterations 1
sic DICPCG:  Solving for e, Initial residual = 0.014461408, Final residual = 2.5654897e-16, No Iterations 1
sic DICPCG:  Solving for C_T2, Initial residual = 0.0052467668, Final residual = 1.4892601e-17, No Iterations 1
    ExecutionTime = 0.077773 s  ClockTime = 0 s
    
    Time = 117s
    
pyc DICPCG:  Solving for e, Initial residual = 0.014177262, Final residual = 6.0997705e-17, No Iterations 1
pyc DICPCG:  Solving for C_T2, Initial residual = 0.0020101752, Final residual = 8.8735741e-18, No Iterations 1
sic DICPCG:  Solving for e, Initial residual = 0.01375376, Final residual = 6.0945734e-17, No Iterations 1
sic DICPCG:  Solving for C_T2, Initial residual = 0.0051698739, Final residual = 1.7902793e-17, No Iterations 1
    ExecutionTime = 0.078062 s  ClockTime = 0 s
    
    Time = 118s
    
pyc DICPCG:  Solving for e, Initial residual = 0.019816344, Final residual = 1.4062907e-16, No Iterations 1
pyc DICPCG:  Solving for C_T2, Initial residual = 0.0020019451, Final residual = 8.5896481e-18, No Iterations 1
sic DICPCG:  Solving for e, Initial residual = 0.01566021, Final residual = 4.7031403e-16, No Iterations 1
sic DICPCG:  Solving for C_T2, Initial residual = 0.0050945916, Final residual = 1.7294044e-17, No Iterations 1
    ExecutionTime = 0.078364 s  ClockTime = 0 s
    
    Time = 119s
    
pyc DICPCG:  Solving for e, Initial residual = 0.016172484, Final residual = 9.8682889e-17, No Iterations 1
pyc DICPCG:  Solving for C_T2, Initial residual = 0.0019937745, Final residual = 8.0779938e-18, No Iterations 1
sic DICPCG:  Solving for e, Initial residual = 0.020463845, Final residual = 1.7484293e-16, No Iterations 1
sic DICPCG:  Solving for C_T2, Initial residual = 0.0050208738, Final residual = 1.5218166e-17, No Iterations 1
    ExecutionTime = 0.078636 s  ClockTime = 0 s
    
    Time = 120s
    
pyc DICPCG:  Solving for e, Initial residual = 0.018890953, Final residual = 2.9513107e-17, No Iterations 1
pyc DICPCG:  Solving for C_T2, Initial residual = 0.0019856613, Final residual = 8.3299608e-18, No Iterations 1
sic DICPCG:  Solving for e, Initial residual = 0.017390184, Final residual = 5.5994066e-17, No Iterations 1
sic DICPCG:  Solving for C_T2, Initial residual = 0.004948676, Final residual = 1.3272346e-17, No Iterations 1
    ExecutionTime = 0.078928 s  ClockTime = 0 s
    
    Time = 121s
    
pyc DICPCG:  Solving for e, Initial residual = 0.011679376, Final residual = 4.3911649e-16, No Iterations 1
pyc DICPCG:  Solving for C_T2, Initial residual = 0.0019776034, Final residual = 7.3086974e-18, No Iterations 1
sic DICPCG:  Solving for e, Initial residual = 0.0143065, Final residual = 2.8740999e-16, No Iterations 1
sic DICPCG:  Solving for C_T2, Initial residual = 0.0048779555, Final residual = 1.4531444e-17, No Iterations 1
    ExecutionTime = 0.079233 s  ClockTime = 0 s
    
    Time = 122s
    
pyc DICPCG:  Solving for e, Initial residual = 0.023242802, Final residual = 3.1009111e-17, No Iterations 1
pyc DICPCG:  Solving for C_T2, Initial residual = 0.001969599, Final residual = 7.0530608e-18, No Iterations 1
sic DICPCG:  Solving for e, Initial residual = 0.015908766, Final residual = 2.3163759e-16, No Iterations 1
sic DICPCG:  Solving for C_T2, Initial residual = 0.0048086671, Final residual = 1.4422688e-17, No Iterations 1
    ExecutionTime = 0.079524 s  ClockTime = 0 s
    
    Time = 123s
    
pyc DICPCG:  Solving for e, Initial residual = 0.02139698, Final residual = 1.0961796e-16, No Iterations 1
pyc DICPCG:  Solving for C_T2, Initial residual = 0.0019616461, Final residual = 8.8079265e-18, No Iterations 1
sic DICPCG:  Solving for e, Initial residual = 0.01864035, Final residual = 9.9433789e-17, No Iterations 1
sic DICPCG:  Solving for C_T2, Initial residual = 0.0047407426, Final residual = 1.5580484e-17, No Iterations 1
    ExecutionTime = 0.079834 s  ClockTime = 0 s
    
    Time = 124s
    
pyc DICPCG:  Solving for e, Initial residual = 0.013250091, Final residual = 1.5820735e-16, No Iterations 1
pyc DICPCG:  Solving for C_T2, Initial residual = 0.0019537431, Final residual = 7.3912471e-18, No Iterations 1
sic DICPCG:  Solving for e, Initial residual = 0.016631558, Final residual = 1.1449447e-16, No Iterations 1
sic DICPCG:  Solving for C_T2, Initial residual = 0.0046741776, Final residual = 1.8404821e-17, No Iterations 1
    ExecutionTime = 0.080139 s  ClockTime = 0 s
    
    Time = 125s
    
pyc DICPCG:  Solving for e, Initial residual = 0.0092673048, Final residual = 5.3357494e-16, No Iterations 1
pyc DICPCG:  Solving for C_T2, Initial residual = 0.0019458881, Final residual = 6.9358998e-18, No Iterations 1
sic DICPCG:  Solving for e, Initial residual = 0.015779689, Final residual = 1.3408418e-16, No Iterations 1
sic DICPCG:  Solving for C_T2, Initial residual = 0.004608935, Final residual = 1.4314733e-17, No Iterations 1
    ExecutionTime = 0.080427 s  ClockTime = 0 s
    
    Time = 126s
    
pyc DICPCG:  Solving for e, Initial residual = 0.017732413, Final residual = 3.3947096e-16, No Iterations 1
pyc DICPCG:  Solving for C_T2, Initial residual = 0.0019380796, Final residual = 7.9607922e-18, No Iterations 1
sic DICPCG:  Solving for e, Initial residual = 0.017171003, Final residual = 7.5615124e-17, No Iterations 1
sic DICPCG:  Solving for C_T2, Initial residual = 0.004544979, Final residual = 1.3404621e-17, No Iterations 1
    ExecutionTime = 0.080722 s  ClockTime = 0 s
    
    Time = 127s
    
pyc DICPCG:  Solving for e, Initial residual = 0.013758333, Final residual = 1.2929459e-16, No Iterations 1
pyc DICPCG:  Solving for C_T2, Initial residual = 0.0019303161, Final residual = 7.1679301e-18, No Iterations 1
sic DICPCG:  Solving for e, Initial residual = 0.013758574, Final residual = 6.3095982e-17, No Iterations 1
sic DICPCG:  Solving for C_T2, Initial residual = 0.0044822752, Final residual = 1.4681141e-17, No Iterations 1
    ExecutionTime = 0.081003 s  ClockTime = 0 s
    
    Time = 128s
    
pyc DICPCG:  Solving for e, Initial residual = 0.013558093, Final residual = 2.6929028e-17, No Iterations 1
pyc DICPCG:  Solving for C_T2, Initial residual = 0.0019225959, Final residual = 8.4568417e-18, No Iterations 1
sic DICPCG:  Solving for e, Initial residual = 0.014589772, Final residual = 2.3815647e-16, No Iterations 1
sic DICPCG:  Solving for C_T2, Initial residual = 0.0044207902, Final residual = 1.3084663e-17, No Iterations 1
    ExecutionTime = 0.081255 s  ClockTime = 0 s
    
    Time = 129s
    
pyc DICPCG:  Solving for e, Initial residual = 0.015300979, Final residual = 4.5168308e-16, No Iterations 1
pyc DICPCG:  Solving for C_T2, Initial residual = 0.0019149176, Final residual = 7.6081741e-18, No Iterations 1
sic DICPCG:  Solving for e, Initial residual = 0.014913028, Final residual = 7.694026e-17, No Iterations 1
sic DICPCG:  Solving for C_T2, Initial residual = 0.0043604919, Final residual = 1.5349367e-17, No Iterations 1
    ExecutionTime = 0.081527 s  ClockTime = 0 s
    
    Time = 130s
    
pyc DICPCG:  Solving for e, Initial residual = 0.012992957, Final residual = 3.9241406e-17, No Iterations 1
pyc DICPCG:  Solving for C_T2, Initial residual = 0.0019072799, Final residual = 7.1025317e-18, No Iterations 1
sic DICPCG:  Solving for e, Initial residual = 0.013243041, Final residual = 1.4169995e-16, No Iterations 1
sic DICPCG:  Solving for C_T2, Initial residual = 0.0043013487, Final residual = 1.3330992e-17, No Iterations 1
    ExecutionTime = 0.081809 s  ClockTime = 1 s
    
    Time = 131s
    
pyc DICPCG:  Solving for e, Initial residual = 0.010249551, Final residual = 2.5120935e-16, No Iterations 1
pyc DICPCG:  Solving for C_T2, Initial residual = 0.0018996812, Final residual = 7.2232997e-18, No Iterations 1
sic DICPCG:  Solving for e, Initial residual = 0.014696545, Final residual = 5.6578692e-17, No Iterations 1
sic DICPCG:  Solving for C_T2, Initial residual = 0.0042433056, Final residual = 1.3848521e-17, No Iterations 1
    ExecutionTime = 0.0821 s  ClockTime = 1 s
    
    Time = 132s
    
pyc DICPCG:  Solving for e, Initial residual = 0.011360945, Final residual = 2.0921083e-16, No Iterations 1
pyc DICPCG:  Solving for C_T2, Initial residual = 0.0018921179, Final residual = 7.0303094e-18, No Iterations 1
sic DICPCG:  Solving for e, Initial residual = 0.016522905, Final residual = 1.2320304e-16, No Iterations 1
sic DICPCG:  Solving for C_T2, Initial residual = 0.0041863601, Final residual = 1.2359636e-17, No Iterations 1
    ExecutionTime = 0.082388 s  ClockTime = 1 s
    
    Time = 133s
    
pyc DICPCG:  Solving for e, Initial residual = 0.016420087, Final residual = 4.4150003e-16, No Iterations 1
pyc DICPCG:  Solving for C_T2, Initial residual = 0.0018845914, Final residual = 7.7408542e-18, No Iterations 1
sic DICPCG:  Solving for e, Initial residual = 0.016076576, Final residual = 2.5170654e-16, No Iterations 1
sic DICPCG:  Solving for C_T2, Initial residual = 0.004130484, Final residual = 1.20209e-17, No Iterations 1
    ExecutionTime = 0.082689 s  ClockTime = 1 s
    
    Time = 134s
    
pyc DICPCG:  Solving for e, Initial residual = 0.010686677, Final residual = 2.9752973e-16, No Iterations 1
pyc DICPCG:  Solving for C_T2, Initial residual = 0.0018771005, Final residual = 6.7920578e-18, No Iterations 1
sic DICPCG:  Solving for e, Initial residual = 0.014678545, Final residual = 1.1169344e-16, No Iterations 1
sic DICPCG:  Solving for C_T2, Initial residual = 0.0040756502, Final residual = 1.0225445e-17, No Iterations 1
    ExecutionTime = 0.082956 s  ClockTime = 1 s
    
    Time = 135s
    
pyc DICPCG:  Solving for e, Initial residual = 0.010765171, Final residual = 6.9109667e-17, No Iterations 1
pyc DICPCG:  Solving for C_T2, Initial residual = 0.0018696441, Final residual = 7.1015857e-18, No Iterations 1
sic DICPCG:  Solving for e, Initial residual = 0.013228936, Final residual = 7.457599e-17, No Iterations 1
sic DICPCG:  Solving for C_T2, Initial residual = 0.0040218324, Final residual = 1.1777094e-17, No Iterations 1
    ExecutionTime = 0.083241 s  ClockTime = 1 s
    
    Time = 136s
    
pyc DICPCG:  Solving for e, Initial residual = 0.011051066, Final residual = 1.7707533e-16, No Iterations 1
pyc DICPCG:  Solving for C_T2, Initial residual = 0.001862221, Final residual = 8.2811006e-18, No Iterations 1
sic DICPCG:  Solving for e, Initial residual = 0.012461908, Final residual = 2.7113542e-16, No Iterations 1
sic DICPCG:  Solving for C_T2, Initial residual = 0.003969005, Final residual = 1.3425482e-17, No Iterations 1
    ExecutionTime = 0.083521 s  ClockTime = 1 s
    
    Time = 137s
    
pyc DICPCG:  Solving for e, Initial residual = 0.013323128, Final residual = 9.876023e-17, No Iterations 1
pyc DICPCG:  Solving for C_T2, Initial residual = 0.0018548304, Final residual = 6.7131966e-18, No Iterations 1
sic DICPCG:  Solving for e, Initial residual = 0.013505269, Final residual = 1.5729328e-16, No Iterations 1
sic DICPCG:  Solving for C_T2, Initial residual = 0.0039171435, Final residual = 1.246124e-17, No Iterations 1
    ExecutionTime = 0.083804 s  ClockTime = 1 s
    
    Time = 138s
    
pyc DICPCG:  Solving for e, Initial residual = 0.019156175, Final residual = 4.8547872e-17, No Iterations 1
pyc DICPCG:  Solving for C_T2, Initial residual = 0.0018474711, Final residual = 7.1415737e-18, No Iterations 1
sic DICPCG:  Solving for e, Initial residual = 0.015236597, Final residual = 9.6770578e-17, No Iterations 1
sic DICPCG:  Solving for C_T2, Initial residual = 0.003866222, Final residual = 1.1490686e-17, No Iterations 1
    ExecutionTime = 0.084194 s  ClockTime = 1 s
    
    Time = 139s
    
pyc DICPCG:  Solving for e, Initial residual = 0.017506748, Final residual = 2.4376929e-16, No Iterations 1
pyc DICPCG:  Solving for C_T2, Initial residual = 0.0018401422, Final residual = 6.2975102e-18, No Iterations 1
sic DICPCG:  Solving for e, Initial residual = 0.017974853, Final residual = 3.1185797e-16, No Iterations 1
sic DICPCG:  Solving for C_T2, Initial residual = 0.0038161988, Final residual = 1.1743939e-17, No Iterations 1
    ExecutionTime = 0.084667 s  ClockTime = 1 s
    
    Time = 140s
    
pyc DICPCG:  Solving for e, Initial residual = 0.016277507, Final residual = 8.8145937e-17, No Iterations 1
pyc DICPCG:  Solving for C_T2, Initial residual = 0.0018328429, Final residual = 7.2258724e-18, No Iterations 1
sic DICPCG:  Solving for e, Initial residual = 0.016777402, Final residual = 1.5089399e-16, No Iterations 1
sic DICPCG:  Solving for C_T2, Initial residual = 0.0037670731, Final residual = 1.1569496e-17, No Iterations 1
    ExecutionTime = 0.085118 s  ClockTime = 1 s
    
    Time = 141s
    
pyc DICPCG:  Solving for e, Initial residual = 0.012331684, Final residual = 7.3534367e-17, No Iterations 1
pyc DICPCG:  Solving for C_T2, Initial residual = 0.0018255722, Final residual = 7.4375035e-18, No Iterations 1
sic DICPCG:  Solving for e, Initial residual = 0.017379349, Final residual = 6.2453126e-17, No Iterations 1
sic DICPCG:  Solving for C_T2, Initial residual = 0.0037188231, Final residual = 1.1480569e-17, No Iterations 1
    ExecutionTime = 0.085589 s  ClockTime = 1 s
    
    Time = 142s
    
pyc DICPCG:  Solving for e, Initial residual = 0.013834845, Final residual = 9.8168872e-17, No Iterations 1
pyc DICPCG:  Solving for C_T2, Initial residual = 0.0018183293, Final residual = 7.3711576e-18, No Iterations 1
sic DICPCG:  Solving for e, Initial residual = 0.020502637, Final residual = 1.1256149e-16, No Iterations 1
sic DICPCG:  Solving for C_T2, Initial residual = 0.0036714277, Final residual = 1.1484254e-17, No Iterations 1
    ExecutionTime = 0.086102 s  ClockTime = 1 s
    
    Time = 143s
    
pyc DICPCG:  Solving for e, Initial residual = 0.015461983, Final residual = 1.1926911e-16, No Iterations 1
pyc DICPCG:  Solving for C_T2, Initial residual = 0.0018111135, Final residual = 5.9102415e-18, No Iterations 1
sic DICPCG:  Solving for e, Initial residual = 0.01734477, Final residual = 6.4751104e-17, No Iterations 1
sic DICPCG:  Solving for C_T2, Initial residual = 0.0036248666, Final residual = 1.1297522e-17, No Iterations 1
    ExecutionTime = 0.086563 s  ClockTime = 1 s
    
    Time = 144s
    
pyc DICPCG:  Solving for e, Initial residual = 0.012925477, Final residual = 2.3652932e-16, No Iterations 1
pyc DICPCG:  Solving for C_T2, Initial residual = 0.0018039238, Final residual = 7.5718782e-18, No Iterations 1
sic DICPCG:  Solving for e, Initial residual = 0.017202719, Final residual = 1.0387721e-16, No Iterations 1
sic DICPCG:  Solving for C_T2, Initial residual = 0.00357912, Final residual = 1.2918578e-17, No Iterations 1
    ExecutionTime = 0.086971 s  ClockTime = 1 s
    
    Time = 145s
    
pyc DICPCG:  Solving for e, Initial residual = 0.013837466, Final residual = 2.2156865e-16, No Iterations 1
pyc DICPCG:  Solving for C_T2, Initial residual = 0.0017967597, Final residual = 6.4120149e-18, No Iterations 1
sic DICPCG:  Solving for e, Initial residual = 0.01776507, Final residual = 3.5742117e-16, No Iterations 1
sic DICPCG:  Solving for C_T2, Initial residual = 0.0035341687, Final residual = 1.0742595e-17, No Iterations 1
    ExecutionTime = 0.087294 s  ClockTime = 1 s
    
    Time = 146s
    
pyc DICPCG:  Solving for e, Initial residual = 0.014416659, Final residual = 2.7163163e-16, No Iterations 1
pyc DICPCG:  Solving for C_T2, Initial residual = 0.0017896205, Final residual = 7.1720003e-18, No Iterations 1
sic DICPCG:  Solving for e, Initial residual = 0.016590998, Final residual = 7.1177809e-17, No Iterations 1
sic DICPCG:  Solving for C_T2, Initial residual = 0.0034899941, Final residual = 1.0862967e-17, No Iterations 1
    ExecutionTime = 0.087672 s  ClockTime = 1 s
    
    Time = 147s
    
pyc DICPCG:  Solving for e, Initial residual = 0.010008889, Final residual = 3.2006837e-16, No Iterations 1
pyc DICPCG:  Solving for C_T2, Initial residual = 0.0017825053, Final residual = 7.020054e-18, No Iterations 1
sic DICPCG:  Solving for e, Initial residual = 0.015812494, Final residual = 9.0695631e-17, No Iterations 1
sic DICPCG:  Solving for C_T2, Initial residual = 0.0034465781, Final residual = 1.0871124e-17, No Iterations 1
    ExecutionTime = 0.087977 s  ClockTime = 1 s
    
    Time = 148s
    
pyc DICPCG:  Solving for e, Initial residual = 0.017531401, Final residual = 2.361542e-16, No Iterations 1
pyc DICPCG:  Solving for C_T2, Initial residual = 0.0017754137, Final residual = 6.5988453e-18, No Iterations 1
sic DICPCG:  Solving for e, Initial residual = 0.017296152, Final residual = 7.7945023e-17, No Iterations 1
sic DICPCG:  Solving for C_T2, Initial residual = 0.0034039033, Final residual = 9.8013448e-18, No Iterations 1
    ExecutionTime = 0.088292 s  ClockTime = 1 s
    
    Time = 149s
    
pyc DICPCG:  Solving for e, Initial residual = 0.012770244, Final residual = 5.6078059e-16, No Iterations 1
pyc DICPCG:  Solving for C_T2, Initial residual = 0.001768345, Final residual = 6.7191347e-18, No Iterations 1
sic DICPCG:  Solving for e, Initial residual = 0.019181428, Final residual = 1.0245375e-16, No Iterations 1
sic DICPCG:  Solving for C_T2, Initial residual = 0.0033619526, Final residual = 1.1649772e-17, No Iterations 1
    ExecutionTime = 0.088586 s  ClockTime = 1 s
    
    Time = 150s
    
pyc DICPCG:  Solving for e, Initial residual = 0.020909838, Final residual = 2.5152798e-17, No Iterations 1
pyc DICPCG:  Solving for C_T2, Initial residual = 0.0017612986, Final residual = 6.233375e-18, No Iterations 1
sic DICPCG:  Solving for e, Initial residual = 0.017460907, Final residual = 8.1892973e-17, No Iterations 1
sic DICPCG:  Solving for C_T2, Initial residual = 0.0033207095, Final residual = 9.3302833e-18, No Iterations 1
    ExecutionTime = 0.088848 s  ClockTime = 1 s
    
    Time = 151s
    
pyc DICPCG:  Solving for e, Initial residual = 0.016676547, Final residual = 2.3119756e-17, No Iterations 1
pyc DICPCG:  Solving for C_T2, Initial residual = 0.001754274, Final residual = 7.6699156e-18, No Iterations 1
sic DICPCG:  Solving for e, Initial residual = 0.014623411, Final residual = 1.207191e-16, No Iterations 1
sic DICPCG:  Solving for C_T2, Initial residual = 0.0032801537, Final residual = 1.0148138e-17, No Iterations 1
    ExecutionTime = 0.089135 s  ClockTime = 1 s
    
    Time = 152s
    
pyc DICPCG:  Solving for e, Initial residual = 0.018218778, Final residual = 6.2966745e-17, No Iterations 1
pyc DICPCG:  Solving for C_T2, Initial residual = 0.0017472706, Final residual = 6.5411673e-18, No Iterations 1
[...]
pyc DICPCG:  Solving for C_T2, Initial residual = 1.0197636e-05, Final residual = 3.9816077e-20, No Iterations 1
sic DICPCG:  Solving for e, Initial residual = 0.015854791, Final residual = 1.1773467e-16, No Iterations 1
sic DICPCG:  Solving for C_T2, Initial residual = 5.7231989e-06, Final residual = 1.8213934e-20, No Iterations 1
    ExecutionTime = 0.434568 s  ClockTime = 1 s
    
    Time = 963s
    
pyc DICPCG:  Solving for e, Initial residual = 0.011414896, Final residual = 8.7588346e-17, No Iterations 1
pyc DICPCG:  Solving for C_T2, Initial residual = 1.0125334e-05, Final residual = 4.2790255e-20, No Iterations 1
sic DICPCG:  Solving for e, Initial residual = 0.016920571, Final residual = 2.0162855e-16, No Iterations 1
sic DICPCG:  Solving for C_T2, Initial residual = 5.682453e-06, Final residual = 2.4613952e-20, No Iterations 1
    ExecutionTime = 0.435031 s  ClockTime = 1 s
    
    Time = 964s
    
pyc DICPCG:  Solving for e, Initial residual = 0.021271471, Final residual = 1.1919096e-16, No Iterations 1
pyc DICPCG:  Solving for C_T2, Initial residual = 1.0053543e-05, Final residual = 3.7616459e-20, No Iterations 1
sic DICPCG:  Solving for e, Initial residual = 0.017469554, Final residual = 4.975716e-17, No Iterations 1
sic DICPCG:  Solving for C_T2, Initial residual = 5.6419976e-06, Final residual = 1.908735e-20, No Iterations 1
    ExecutionTime = 0.435484 s  ClockTime = 1 s
    
    Time = 965s
    
pyc DICPCG:  Solving for e, Initial residual = 0.013685398, Final residual = 6.0259935e-17, No Iterations 1
pyc DICPCG:  Solving for C_T2, Initial residual = 9.9822597e-06, Final residual = 4.383819e-20, No Iterations 1
sic DICPCG:  Solving for e, Initial residual = 0.016255896, Final residual = 2.4125689e-17, No Iterations 1
sic DICPCG:  Solving for C_T2, Initial residual = 5.6018305e-06, Final residual = 1.7109361e-20, No Iterations 1
    ExecutionTime = 0.435915 s  ClockTime = 1 s
    
    Time = 966s
    
pyc DICPCG:  Solving for e, Initial residual = 0.013405499, Final residual = 2.5407432e-16, No Iterations 1
pyc DICPCG:  Solving for C_T2, Initial residual = 9.9114804e-06, Final residual = 4.0606016e-20, No Iterations 1
sic DICPCG:  Solving for e, Initial residual = 0.016915384, Final residual = 2.2006695e-16, No Iterations 1
sic DICPCG:  Solving for C_T2, Initial residual = 5.5619498e-06, Final residual = 1.6414984e-20, No Iterations 1
    ExecutionTime = 0.436328 s  ClockTime = 1 s
    
    Time = 967s
    
pyc DICPCG:  Solving for e, Initial residual = 0.012291197, Final residual = 2.0589443e-16, No Iterations 1
pyc DICPCG:  Solving for C_T2, Initial residual = 9.8412016e-06, Final residual = 4.2678732e-20, No Iterations 1
sic DICPCG:  Solving for e, Initial residual = 0.014350653, Final residual = 7.3129428e-17, No Iterations 1
sic DICPCG:  Solving for C_T2, Initial residual = 5.5223534e-06, Final residual = 1.8370364e-20, No Iterations 1
    ExecutionTime = 0.436762 s  ClockTime = 1 s
    
    Time = 968s
    
pyc DICPCG:  Solving for e, Initial residual = 0.011362925, Final residual = 3.3308271e-16, No Iterations 1
pyc DICPCG:  Solving for C_T2, Initial residual = 9.7714198e-06, Final residual = 3.8098536e-20, No Iterations 1
sic DICPCG:  Solving for e, Initial residual = 0.015107665, Final residual = 1.4575097e-16, No Iterations 1
sic DICPCG:  Solving for C_T2, Initial residual = 5.4830393e-06, Final residual = 1.700008e-20, No Iterations 1
    ExecutionTime = 0.437234 s  ClockTime = 1 s
    
    Time = 969s
    
pyc DICPCG:  Solving for e, Initial residual = 0.018474915, Final residual = 1.4348867e-16, No Iterations 1
pyc DICPCG:  Solving for C_T2, Initial residual = 9.7021315e-06, Final residual = 3.6146752e-20, No Iterations 1
sic DICPCG:  Solving for e, Initial residual = 0.0171756, Final residual = 2.6239333e-17, No Iterations 1
sic DICPCG:  Solving for C_T2, Initial residual = 5.4440054e-06, Final residual = 1.7146421e-20, No Iterations 1
    ExecutionTime = 0.437665 s  ClockTime = 1 s
    
    Time = 970s
    
pyc DICPCG:  Solving for e, Initial residual = 0.011795715, Final residual = 2.9374643e-16, No Iterations 1
pyc DICPCG:  Solving for C_T2, Initial residual = 9.6333332e-06, Final residual = 4.5752246e-20, No Iterations 1
sic DICPCG:  Solving for e, Initial residual = 0.013957674, Final residual = 1.9929594e-16, No Iterations 1
sic DICPCG:  Solving for C_T2, Initial residual = 5.4052497e-06, Final residual = 1.6381218e-20, No Iterations 1
    ExecutionTime = 0.438075 s  ClockTime = 1 s
    
    Time = 971s
    
pyc DICPCG:  Solving for e, Initial residual = 0.013416748, Final residual = 3.4544416e-16, No Iterations 1
pyc DICPCG:  Solving for C_T2, Initial residual = 9.5650215e-06, Final residual = 3.8759776e-20, No Iterations 1
sic DICPCG:  Solving for e, Initial residual = 0.016306215, Final residual = 1.4724321e-16, No Iterations 1
sic DICPCG:  Solving for C_T2, Initial residual = 5.3667703e-06, Final residual = 2.0458294e-20, No Iterations 1
    ExecutionTime = 0.438575 s  ClockTime = 1 s
    
    Time = 972s
    
pyc DICPCG:  Solving for e, Initial residual = 0.014647355, Final residual = 1.3436099e-16, No Iterations 1
pyc DICPCG:  Solving for C_T2, Initial residual = 9.4971929e-06, Final residual = 3.4665195e-20, No Iterations 1
sic DICPCG:  Solving for e, Initial residual = 0.018602965, Final residual = 3.6606785e-16, No Iterations 1
sic DICPCG:  Solving for C_T2, Initial residual = 5.3285651e-06, Final residual = 1.9423746e-20, No Iterations 1
    ExecutionTime = 0.439024 s  ClockTime = 1 s
    
    Time = 973s
    
pyc DICPCG:  Solving for e, Initial residual = 0.017404112, Final residual = 1.0321089e-16, No Iterations 1
pyc DICPCG:  Solving for C_T2, Initial residual = 9.429844e-06, Final residual = 3.7192539e-20, No Iterations 1
sic DICPCG:  Solving for e, Initial residual = 0.014960488, Final residual = 2.1934974e-16, No Iterations 1
sic DICPCG:  Solving for C_T2, Initial residual = 5.2906323e-06, Final residual = 1.7344769e-20, No Iterations 1
    ExecutionTime = 0.439454 s  ClockTime = 1 s
    
    Time = 974s
    
pyc DICPCG:  Solving for e, Initial residual = 0.015356852, Final residual = 3.9946514e-16, No Iterations 1
pyc DICPCG:  Solving for C_T2, Initial residual = 9.3629716e-06, Final residual = 4.2177597e-20, No Iterations 1
sic DICPCG:  Solving for e, Initial residual = 0.015839752, Final residual = 2.5123619e-16, No Iterations 1
sic DICPCG:  Solving for C_T2, Initial residual = 5.2529698e-06, Final residual = 1.6366305e-20, No Iterations 1
    ExecutionTime = 0.439913 s  ClockTime = 1 s
    
    Time = 975s
    
pyc DICPCG:  Solving for e, Initial residual = 0.012764484, Final residual = 5.1984854e-16, No Iterations 1
pyc DICPCG:  Solving for C_T2, Initial residual = 9.2965721e-06, Final residual = 3.5957747e-20, No Iterations 1
sic DICPCG:  Solving for e, Initial residual = 0.016787919, Final residual = 1.3920666e-16, No Iterations 1
sic DICPCG:  Solving for C_T2, Initial residual = 5.2155758e-06, Final residual = 1.8491997e-20, No Iterations 1
    ExecutionTime = 0.440327 s  ClockTime = 1 s
    
    Time = 976s
    
pyc DICPCG:  Solving for e, Initial residual = 0.016685568, Final residual = 6.0644738e-16, No Iterations 1
pyc DICPCG:  Solving for C_T2, Initial residual = 9.2306423e-06, Final residual = 3.9836781e-20, No Iterations 1
sic DICPCG:  Solving for e, Initial residual = 0.016018903, Final residual = 1.1075646e-16, No Iterations 1
sic DICPCG:  Solving for C_T2, Initial residual = 5.1784483e-06, Final residual = 1.7850337e-20, No Iterations 1
    ExecutionTime = 0.440863 s  ClockTime = 1 s
    
    Time = 977s
    
pyc DICPCG:  Solving for e, Initial residual = 0.01553352, Final residual = 1.8760635e-16, No Iterations 1
pyc DICPCG:  Solving for C_T2, Initial residual = 9.1651789e-06, Final residual = 3.7387777e-20, No Iterations 1
sic DICPCG:  Solving for e, Initial residual = 0.016775926, Final residual = 2.3280785e-16, No Iterations 1
sic DICPCG:  Solving for C_T2, Initial residual = 5.1415854e-06, Final residual = 1.8014694e-20, No Iterations 1
    ExecutionTime = 0.441364 s  ClockTime = 1 s
    
    Time = 978s
    
pyc DICPCG:  Solving for e, Initial residual = 0.017747423, Final residual = 1.062676e-16, No Iterations 1
pyc DICPCG:  Solving for C_T2, Initial residual = 9.1001786e-06, Final residual = 3.3865028e-20, No Iterations 1
sic DICPCG:  Solving for e, Initial residual = 0.01368332, Final residual = 1.1150961e-16, No Iterations 1
sic DICPCG:  Solving for C_T2, Initial residual = 5.1049853e-06, Final residual = 1.7740612e-20, No Iterations 1
    ExecutionTime = 0.441828 s  ClockTime = 1 s
    
    Time = 979s
    
pyc DICPCG:  Solving for e, Initial residual = 0.014567419, Final residual = 4.6222179e-16, No Iterations 1
pyc DICPCG:  Solving for C_T2, Initial residual = 9.0356382e-06, Final residual = 4.2005679e-20, No Iterations 1
sic DICPCG:  Solving for e, Initial residual = 0.014791017, Final residual = 2.6387864e-16, No Iterations 1
sic DICPCG:  Solving for C_T2, Initial residual = 5.0686459e-06, Final residual = 1.5887276e-20, No Iterations 1
    ExecutionTime = 0.442239 s  ClockTime = 1 s
    
    Time = 980s
    
pyc DICPCG:  Solving for e, Initial residual = 0.017104711, Final residual = 1.454691e-16, No Iterations 1
pyc DICPCG:  Solving for C_T2, Initial residual = 8.9715544e-06, Final residual = 3.6348838e-20, No Iterations 1
sic DICPCG:  Solving for e, Initial residual = 0.019365422, Final residual = 1.1714986e-16, No Iterations 1
sic DICPCG:  Solving for C_T2, Initial residual = 5.0325656e-06, Final residual = 1.608831e-20, No Iterations 1
    ExecutionTime = 0.442668 s  ClockTime = 1 s
    
    Time = 981s
    
pyc DICPCG:  Solving for e, Initial residual = 0.024296368, Final residual = 4.9886788e-16, No Iterations 1
pyc DICPCG:  Solving for C_T2, Initial residual = 8.9079239e-06, Final residual = 3.6940462e-20, No Iterations 1
sic DICPCG:  Solving for e, Initial residual = 0.019960725, Final residual = 2.4272309e-17, No Iterations 1
sic DICPCG:  Solving for C_T2, Initial residual = 4.9967424e-06, Final residual = 2.0165763e-20, No Iterations 1
    ExecutionTime = 0.443085 s  ClockTime = 1 s
    
    Time = 982s
    
pyc DICPCG:  Solving for e, Initial residual = 0.016553503, Final residual = 2.9685954e-16, No Iterations 1
pyc DICPCG:  Solving for C_T2, Initial residual = 8.8447436e-06, Final residual = 3.6143865e-20, No Iterations 1
sic DICPCG:  Solving for e, Initial residual = 0.016725674, Final residual = 5.9408983e-17, No Iterations 1
sic DICPCG:  Solving for C_T2, Initial residual = 4.9611745e-06, Final residual = 2.1392398e-20, No Iterations 1
    ExecutionTime = 0.443528 s  ClockTime = 1 s
    
    Time = 983s
    
pyc DICPCG:  Solving for e, Initial residual = 0.012946814, Final residual = 7.9302526e-17, No Iterations 1
pyc DICPCG:  Solving for C_T2, Initial residual = 8.7820104e-06, Final residual = 3.5566583e-20, No Iterations 1
sic DICPCG:  Solving for e, Initial residual = 0.017377546, Final residual = 1.7911828e-16, No Iterations 1
sic DICPCG:  Solving for C_T2, Initial residual = 4.9258601e-06, Final residual = 1.4946129e-20, No Iterations 1
    ExecutionTime = 0.443969 s  ClockTime = 1 s
    
    Time = 984s
    
pyc DICPCG:  Solving for e, Initial residual = 0.014092358, Final residual = 1.9363361e-16, No Iterations 1
pyc DICPCG:  Solving for C_T2, Initial residual = 8.7197211e-06, Final residual = 3.6797923e-20, No Iterations 1
sic DICPCG:  Solving for e, Initial residual = 0.017653146, Final residual = 3.5213451e-16, No Iterations 1
sic DICPCG:  Solving for C_T2, Initial residual = 4.8907974e-06, Final residual = 1.8200787e-20, No Iterations 1
    ExecutionTime = 0.444327 s  ClockTime = 1 s
    
    Time = 985s
    
pyc DICPCG:  Solving for e, Initial residual = 0.022756639, Final residual = 4.3876134e-17, No Iterations 1
pyc DICPCG:  Solving for C_T2, Initial residual = 8.6578725e-06, Final residual = 3.1543353e-20, No Iterations 1
sic DICPCG:  Solving for e, Initial residual = 0.016405094, Final residual = 1.2624395e-16, No Iterations 1
sic DICPCG:  Solving for C_T2, Initial residual = 4.8559845e-06, Final residual = 1.6226e-20, No Iterations 1
    ExecutionTime = 0.444761 s  ClockTime = 1 s
    
    Time = 986s
    
pyc DICPCG:  Solving for e, Initial residual = 0.011566741, Final residual = 3.7764151e-16, No Iterations 1
pyc DICPCG:  Solving for C_T2, Initial residual = 8.5964615e-06, Final residual = 3.4126652e-20, No Iterations 1
sic DICPCG:  Solving for e, Initial residual = 0.013336255, Final residual = 6.1506682e-17, No Iterations 1
sic DICPCG:  Solving for C_T2, Initial residual = 4.8214197e-06, Final residual = 1.7017363e-20, No Iterations 1
    ExecutionTime = 0.445201 s  ClockTime = 1 s
    
    Time = 987s
    
pyc DICPCG:  Solving for e, Initial residual = 0.013920627, Final residual = 9.1945759e-17, No Iterations 1
pyc DICPCG:  Solving for C_T2, Initial residual = 8.5354852e-06, Final residual = 2.9966252e-20, No Iterations 1
sic DICPCG:  Solving for e, Initial residual = 0.017499511, Final residual = 2.4176298e-16, No Iterations 1
sic DICPCG:  Solving for C_T2, Initial residual = 4.7871012e-06, Final residual = 1.8203475e-20, No Iterations 1
    ExecutionTime = 0.445707 s  ClockTime = 1 s
    
    Time = 988s
    
pyc DICPCG:  Solving for e, Initial residual = 0.020201081, Final residual = 9.5012399e-17, No Iterations 1
pyc DICPCG:  Solving for C_T2, Initial residual = 8.4749403e-06, Final residual = 3.1752267e-20, No Iterations 1
sic DICPCG:  Solving for e, Initial residual = 0.01503462, Final residual = 2.1938272e-16, No Iterations 1
sic DICPCG:  Solving for C_T2, Initial residual = 4.7530272e-06, Final residual = 1.3538188e-20, No Iterations 1
    ExecutionTime = 0.446155 s  ClockTime = 1 s
    
    Time = 989s
    
pyc DICPCG:  Solving for e, Initial residual = 0.010601708, Final residual = 1.8460028e-16, No Iterations 1
pyc DICPCG:  Solving for C_T2, Initial residual = 8.4148239e-06, Final residual = 3.7108643e-20, No Iterations 1
sic DICPCG:  Solving for e, Initial residual = 0.015288908, Final residual = 2.0775638e-16, No Iterations 1
sic DICPCG:  Solving for C_T2, Initial residual = 4.7191961e-06, Final residual = 1.9271656e-20, No Iterations 1
    ExecutionTime = 0.446625 s  ClockTime = 1 s
    
    Time = 990s
    
pyc DICPCG:  Solving for e, Initial residual = 0.017222857, Final residual = 1.3585028e-16, No Iterations 1
pyc DICPCG:  Solving for C_T2, Initial residual = 8.355133e-06, Final residual = 3.8838973e-20, No Iterations 1
sic DICPCG:  Solving for e, Initial residual = 0.01498112, Final residual = 8.7278387e-17, No Iterations 1
sic DICPCG:  Solving for C_T2, Initial residual = 4.685606e-06, Final residual = 1.6475968e-20, No Iterations 1
    ExecutionTime = 0.447062 s  ClockTime = 1 s
    
    Time = 991s
    
pyc DICPCG:  Solving for e, Initial residual = 0.011890758, Final residual = 1.285005e-16, No Iterations 1
pyc DICPCG:  Solving for C_T2, Initial residual = 8.2958645e-06, Final residual = 3.2614945e-20, No Iterations 1
sic DICPCG:  Solving for e, Initial residual = 0.015875374, Final residual = 3.3056219e-16, No Iterations 1
sic DICPCG:  Solving for C_T2, Initial residual = 4.6522553e-06, Final residual = 1.9356077e-20, No Iterations 1
    ExecutionTime = 0.447494 s  ClockTime = 1 s
    
    Time = 992s
    
pyc DICPCG:  Solving for e, Initial residual = 0.019485124, Final residual = 2.4282856e-16, No Iterations 1
pyc DICPCG:  Solving for C_T2, Initial residual = 8.2370154e-06, Final residual = 3.1929478e-20, No Iterations 1
sic DICPCG:  Solving for e, Initial residual = 0.015174708, Final residual = 3.1923464e-16, No Iterations 1
sic DICPCG:  Solving for C_T2, Initial residual = 4.6191422e-06, Final residual = 1.8820538e-20, No Iterations 1
    ExecutionTime = 0.44793 s  ClockTime = 1 s
    
    Time = 993s
    
pyc DICPCG:  Solving for e, Initial residual = 0.013009116, Final residual = 2.5114526e-16, No Iterations 1
pyc DICPCG:  Solving for C_T2, Initial residual = 8.178583e-06, Final residual = 3.4057664e-20, No Iterations 1
sic DICPCG:  Solving for e, Initial residual = 0.016323343, Final residual = 1.1668225e-16, No Iterations 1
sic DICPCG:  Solving for C_T2, Initial residual = 4.5862651e-06, Final residual = 1.6658673e-20, No Iterations 1
    ExecutionTime = 0.448373 s  ClockTime = 1 s
    
    Time = 994s
    
pyc DICPCG:  Solving for e, Initial residual = 0.012830805, Final residual = 1.454708e-16, No Iterations 1
pyc DICPCG:  Solving for C_T2, Initial residual = 8.120564e-06, Final residual = 3.7792932e-20, No Iterations 1
sic DICPCG:  Solving for e, Initial residual = 0.015693833, Final residual = 2.6764834e-16, No Iterations 1
sic DICPCG:  Solving for C_T2, Initial residual = 4.5536222e-06, Final residual = 1.6602911e-20, No Iterations 1
    ExecutionTime = 0.448824 s  ClockTime = 1 s
    
    Time = 995s
    
pyc DICPCG:  Solving for e, Initial residual = 0.018586795, Final residual = 1.2196649e-16, No Iterations 1
pyc DICPCG:  Solving for C_T2, Initial residual = 8.0629558e-06, Final residual = 3.330246e-20, No Iterations 1
sic DICPCG:  Solving for e, Initial residual = 0.017058452, Final residual = 8.5150166e-17, No Iterations 1
sic DICPCG:  Solving for C_T2, Initial residual = 4.5212119e-06, Final residual = 1.4917601e-20, No Iterations 1
    ExecutionTime = 0.449209 s  ClockTime = 1 s
    
    Time = 996s
    
pyc DICPCG:  Solving for e, Initial residual = 0.023207204, Final residual = 4.5098332e-17, No Iterations 1
pyc DICPCG:  Solving for C_T2, Initial residual = 8.0057554e-06, Final residual = 3.2345818e-20, No Iterations 1
sic DICPCG:  Solving for e, Initial residual = 0.015426542, Final residual = 3.1508886e-16, No Iterations 1
sic DICPCG:  Solving for C_T2, Initial residual = 4.4890326e-06, Final residual = 1.2895865e-20, No Iterations 1
    ExecutionTime = 0.449671 s  ClockTime = 1 s
    
    Time = 997s
    
pyc DICPCG:  Solving for e, Initial residual = 0.016692078, Final residual = 4.2942917e-16, No Iterations 1
pyc DICPCG:  Solving for C_T2, Initial residual = 7.9489598e-06, Final residual = 3.2379154e-20, No Iterations 1
sic DICPCG:  Solving for e, Initial residual = 0.01567763, Final residual = 7.3365286e-17, No Iterations 1
sic DICPCG:  Solving for C_T2, Initial residual = 4.4570825e-06, Final residual = 1.3900666e-20, No Iterations 1
    ExecutionTime = 0.450153 s  ClockTime = 1 s
    
    Time = 998s
    
pyc DICPCG:  Solving for e, Initial residual = 0.017453811, Final residual = 3.562537e-17, No Iterations 1
pyc DICPCG:  Solving for C_T2, Initial residual = 7.8925663e-06, Final residual = 3.1025217e-20, No Iterations 1
sic DICPCG:  Solving for e, Initial residual = 0.014627055, Final residual = 1.7535084e-16, No Iterations 1
sic DICPCG:  Solving for C_T2, Initial residual = 4.42536e-06, Final residual = 1.4194295e-20, No Iterations 1
    ExecutionTime = 0.450581 s  ClockTime = 1 s
    
    Time = 999s
    
pyc DICPCG:  Solving for e, Initial residual = 0.01268852, Final residual = 3.622479e-16, No Iterations 1
pyc DICPCG:  Solving for C_T2, Initial residual = 7.836572e-06, Final residual = 3.1008775e-20, No Iterations 1
sic DICPCG:  Solving for e, Initial residual = 0.012617125, Final residual = 3.4883868e-16, No Iterations 1
sic DICPCG:  Solving for C_T2, Initial residual = 4.3938636e-06, Final residual = 1.4752111e-20, No Iterations 1
    ExecutionTime = 0.451014 s  ClockTime = 1 s
    
    Time = 1000s
    
pyc DICPCG:  Solving for e, Initial residual = 0.024748303, Final residual = 1.9660047e-16, No Iterations 1
pyc DICPCG:  Solving for C_T2, Initial residual = 7.7809742e-06, Final residual = 2.8715871e-20, No Iterations 1
sic DICPCG:  Solving for e, Initial residual = 0.015439396, Final residual = 1.4568319e-16, No Iterations 1
sic DICPCG:  Solving for C_T2, Initial residual = 4.3625915e-06, Final residual = 1.4992727e-20, No Iterations 1
    ExecutionTime = 0.453504 s  ClockTime = 1 s
    
    End
    
